44
29A 30A 39B 10A 14A 18B 19B 43 40 42 12 27 28 26 2 3 4 4 2 1 7 3 1 3 0 nosym
C    0.0000000    0.0000000    0.0000000  
C    1.0541691   -0.0001722   -0.8560390  
C    0.5103141   -0.0000454   -2.1935956  
C   -0.9576367    0.0002459   -2.0455732  
N   -1.2018457   -0.0001391   -0.6915970  
C   -1.8348306    0.0008317   -3.0810611  
C   -1.2972839    0.0009737   -4.4314607  
O   -2.0050665    0.0014265   -5.4301319  
C    0.2542630    0.0004184   -4.6117571  
O    0.7184680    0.0002257   -5.7439119  
C    1.0974559    0.0000874   -3.4189128  
H    2.0940753   -0.0005483   -0.5817981  
H    2.1707284   -0.0000911   -3.5523666  
H   -2.1128191    0.0014912   -0.2706794  
C   -4.4922136    2.0924787   -0.2420898  
C   -3.4155269    1.6303225   -0.9285530  
C   -3.9166421    0.7353628   -1.9448039  
C   -5.3840556    0.7138752   -1.7930597  
N   -5.6687574    1.5568188   -0.7436406  
C   -6.2266206   -0.0146454   -2.5683317  
C   -5.6496876   -0.8323155   -3.6224186  
O   -6.3245421   -1.5240964   -4.3736254  
C   -4.0979609   -0.8249840   -3.8010124  
O   -3.6007578   -1.5096760   -4.6848939  
C   -3.2941069    0.0012874   -2.9038244  
H   -2.3875706    1.8869172   -0.7439485  
H   -7.3001877   -0.0161644   -2.4404186  
H   -4.5251472    2.7791513    0.5881426  
H   -6.5895633    1.7542195   -0.3969465  
C    3.3321173   -0.0004715    2.8079335  
C    2.6974184   -0.0000116    4.0032312  
C    1.2800439    0.0002118    3.6752840  
C    1.2395035   -0.0000644    2.1971295  
N    2.4394063   -0.0005460    1.6831036  
C    0.0000000    0.0000000    1.4700000  
C   -1.1468701   -0.0000635    2.1869543  
O   -2.3742202   -0.0000073    1.6395491  
C   -1.1388768   -0.0001607    3.6796354  
O   -2.2206231   -0.0000905    4.2670412  
C    0.1454524   -0.0001816    4.4024240  
H    3.1367986    0.0000651    4.9860947  
H   -2.9844344   -0.0001026    2.3990168  
H    0.1083576   -0.0003682    5.4835595  
H    4.3940039   -0.0007619    2.6198634  
