44
29A 30A 39B 5B 19B 24B 43 40 42 12 26 28 2 3 4 7 7 4 3 1 2 0 nosym
C    3.2573672   -0.0002920   -1.5109379  
C    2.5379469   -0.0001709   -0.3591960  
C    1.1435044    0.0000331   -0.7338498  
C    1.1092608   -0.0000083   -2.2088475  
N    2.4227563    0.0001909   -2.6182608  
C   -0.0265531   -0.0002524   -2.9515661  
C   -1.3003038   -0.0002640   -2.2514979  
O   -2.3786783   -0.0004133   -2.8306426  
C   -1.2877724    0.0000311   -0.6895607  
O   -2.3539956    0.0003306   -0.0892035  
C    0.0000000    0.0000000    0.0000000  
H    2.9384089   -0.0000367    0.6389238  
H   -0.0296289   -0.0004086   -4.0327230  
H    2.7280494   -0.0013407   -3.5742114  
C    4.7161333   -0.0005435   -1.6923255  
C    5.6747640   -0.0008963   -0.7370212  
C    6.9326503   -0.0010018   -1.4679262  
C    6.5359796   -0.0007817   -2.8924388  
N    5.2379014   -0.0004319   -3.0302097  
C    7.5063021   -0.0007608   -3.9524206  
C    8.8134768   -0.0005622   -3.6051038  
O    9.8251254   -0.0005268   -4.4897555  
C    9.2455286   -0.0004053   -2.1762961  
O   10.4523086   -0.0003517   -1.9335966  
C    8.2310913   -0.0004740   -1.1072586  
H    5.5443949   -0.0009740    0.3316603  
H    7.1881030   -0.0008044   -4.9847282  
H   10.6319777   -0.0003444   -3.9437317  
H    8.5850042   -0.0002403   -0.0850183  
C    2.5528530    2.1414826    2.8079335  
C    2.0663498    1.7338582    4.0032312  
C    0.9804344    0.8229586    3.6752840  
C    0.9495562    0.7966882    2.1971295  
N    1.8690446    1.5676019    1.6831036  
C    0.0000000    0.0000000    1.4700000  
C   -0.8785127   -0.7372425    2.1869543  
O   -1.8187535   -1.5261249    1.6395491  
C   -0.8723269   -0.7321790    3.6796354  
O   -1.7010379   -1.4274584    4.2670412  
C    0.1115397    0.0933559    4.4024240  
H    2.4028853    2.0163452    4.9860947  
H   -2.2861435   -1.9184361    2.3990168  
H    0.0832434    0.0693689    5.4835595  
H    3.3664920    2.8238276    2.6198634  
