46
31A 36B 10B 21B 26B 45 43 15 28 29 2 7 4 7 4 2 1 2 0 nosym
C    0.0000000    0.0000000    0.0000000  
C    1.0521663   -0.0011902   -0.8862345  
C    0.4917214   -0.0011957   -2.1979134  
C   -0.9187430    0.0003148   -2.0478682  
N   -1.1833173   -0.0009412   -0.7007911  
C   -1.7951704    0.0010350   -3.1372089  
C   -1.2375842    0.0005225   -4.4010423  
O   -2.0474221    0.0015360   -5.4997574  
C    0.1673576   -0.0013567   -4.5711965  
O    0.5673515   -0.0020688   -5.8915554  
C    1.0325766   -0.0023413   -3.4969893  
H    2.0953056   -0.0030649   -0.6200564  
H   -2.0989777    0.0102372   -0.2891822  
H   -1.4634892    0.0006498   -6.2693592  
H    1.5290704   -0.0033153   -5.9180050  
H    2.1042142   -0.0039610   -3.6584459  
C   -3.2578657    0.0024039   -2.9908504  
C   -4.0046941    0.0033126   -1.8566893  
C   -5.3897521    0.0044626   -2.2646700  
C   -5.3886203    0.0041181   -3.7400647  
N   -4.0656859    0.0032564   -4.1178664  
C   -6.5062990    0.0045471   -4.5098031  
C   -7.7964681    0.0056317   -3.8404768  
O   -8.8606473    0.0061495   -4.4453113  
C   -7.8213909    0.0062654   -2.2786883  
O   -8.9017018    0.0074857   -1.7040686  
C   -6.5505224    0.0054371   -1.5584491  
H   -3.6282785    0.0033734   -0.8492543  
H   -6.4834517    0.0041524   -5.5907229  
H   -6.5764545    0.0056780   -0.4772221  
H   -3.7375612    0.0012865   -5.0662216  
C    3.1301144    0.0010313    3.1728260  
C    2.5367765    0.0002768    1.9564670  
C    1.1089900   -0.0001027    2.2356185  
C    1.0177864    0.0004150    3.7115134  
N    2.1993570    0.0011613    4.2663826  
C   -0.2459220    0.0002880    4.3957118  
C   -1.3675327    0.0000606    3.6398520  
O   -2.6129319   -0.0000866    4.1448486  
C   -1.3083589   -0.0000910    2.1483229  
O   -2.3693264   -0.0004206    1.5241687  
C    0.0000000    0.0000000    1.4700000  
H    3.0096015    0.0001008    0.9892483  
H   -0.2829642    0.0004689    5.4753125  
H   -3.1967446   -0.0002093    3.3649027  
H    4.1849273    0.0015113    3.3971983  
