46
36B 10A 20B 21B 42 15 30 27 7 4 1 7 1 1 2 0 nosym
C    0.0000000    0.0000000    0.0000000  
C    1.0521663   -0.0011902   -0.8862345  
C    0.4917214   -0.0011957   -2.1979134  
C   -0.9187430    0.0003148   -2.0478682  
N   -1.1833173   -0.0009412   -0.7007911  
C   -1.7951704    0.0010350   -3.1372089  
C   -1.2375842    0.0005225   -4.4010423  
O   -2.0474221    0.0015360   -5.4997574  
C    0.1673576   -0.0013567   -4.5711965  
O    0.5673515   -0.0020688   -5.8915554  
C    1.0325766   -0.0023413   -3.4969893  
H    2.0953056   -0.0030649   -0.6200564  
H   -2.0989777    0.0102372   -0.2891822  
H   -1.4634892    0.0006498   -6.2693592  
H    1.5290704   -0.0033153   -5.9180050  
H    2.1042142   -0.0039610   -3.6584459  
C   -3.9705535    0.7070936   -2.0745736  
C   -3.2578657    0.0024039   -2.9908504  
C   -4.2093228   -0.7382558   -3.7851980  
C   -5.5443148   -0.4048911   -3.2527938  
N   -5.3302026    0.4752875   -2.2172595  
C   -6.7108608   -0.9029347   -3.7353165  
C   -6.6473136   -1.8292927   -4.8535103  
O   -7.6421011   -2.3324327   -5.3590287  
C   -5.2441046   -2.1966304   -5.4330566  
O   -5.1780527   -2.9757386   -6.3742728  
C   -4.0579911   -1.5951410   -4.8287421  
H   -7.6796705   -0.6453708   -3.3303738  
H   -3.0902096   -1.8545079   -5.2359910  
H   -3.6168797    1.3760907   -1.3069490  
H   -6.0507901    0.8875045   -1.6534525  
C    1.0672568    0.0000697    2.3021913  
C    0.0000000    0.0000000    1.4700000  
C   -1.1601224    0.0000736    2.3478473  
C   -0.5938729    0.0000769    3.7138435  
N    0.7113367    0.0001554    3.6934124  
C   -1.4286986    0.0001879    4.8835240  
C   -2.7683114    0.0006799    4.6970523  
O   -3.6653903    0.0008304    5.6976972  
C   -3.3702025    0.0010610    3.3310774  
O   -4.5974910    0.0013779    3.2362962  
C   -2.4926826    0.0008943    2.1470656  
H   -0.9878360   -0.0000190    5.8697035  
H   -4.5324246    0.0012261    5.2533954  
H   -2.9677772    0.0012974    1.1752040  
H    2.1134392    0.0000545    2.0405121  
