46
31A 32A 41B 20A 21B 45 42 44 30 27 2 3 4 1 7 3 0 2 0 nosym
C    1.1243415    0.0099154   -0.7919009  
C    0.7474086    0.0234032   -2.1148547  
C   -0.6787371    0.0234950   -2.1414700  
C   -1.1201741    0.0099356   -0.7935548  
N    0.0000000    0.0000000    0.0000000  
C   -2.4730813    0.0065397   -0.4408236  
C   -3.3971949    0.0173298   -1.4675053  
O   -4.7313511    0.0149489   -1.1793459  
C   -2.9763635    0.0305536   -2.8186319  
O   -4.0166455    0.0397857   -3.7247614  
C   -1.6418548    0.0336378   -3.1673479  
H    1.4178728    0.0310000   -2.9571213  
H   -2.8160170   -0.0039188    0.5845970  
H   -5.1938805    0.0234411   -2.0274374  
H   -3.6464652    0.0484778   -4.6127335  
H    2.1062467    0.0051380   -0.3505414  
C   -0.2202355   -0.6516149   -5.1344350  
C   -1.2456309    0.0472573   -4.5828763  
C   -1.8641526    0.7992305   -5.6490859  
C   -1.1096578    0.4788445   -6.8758216  
N   -0.1264937   -0.4053864   -6.4958035  
C   -1.3839498    0.9898952   -8.1027265  
C   -2.4963846    1.9175569   -8.2230091  
O   -2.8229269    2.4319542   -9.2846432  
C   -3.3090726    2.2712878   -6.9368450  
O   -4.2476062    3.0513622   -7.0257225  
C   -2.9181800    1.6563731   -5.6707742  
H   -0.8181132    0.7417173   -8.9899386  
H   -3.4861123    1.9063688   -4.7849530  
H    0.4749729   -1.3256478   -4.6608800  
H    0.5530603   -0.8110839   -7.1127824  
C    2.5528530    2.1414826    2.8079335  
C    2.0663498    1.7338582    4.0032312  
C    0.9804344    0.8229586    3.6752840  
C    0.9495562    0.7966882    2.1971295  
N    1.8690446    1.5676019    1.6831036  
C    0.0000000    0.0000000    1.4700000  
C   -0.8785127   -0.7372425    2.1869543  
O   -1.8187535   -1.5261249    1.6395491  
C   -0.8723269   -0.7321790    3.6796354  
O   -1.7010379   -1.4274584    4.2670412  
C    0.1115397    0.0933559    4.4024240  
H    2.4028853    2.0163452    4.9860947  
H   -2.2861435   -1.9184361    2.3990168  
H    0.0832434    0.0693689    5.4835595  
H    3.3664920    2.8238276    2.6198634  
