44
34B 10A 14A 15B 24B 40 12 28 25 27 7 4 2 3 4 1 1 3 0 nosym
C    3.2798086    0.0005856   -1.4499647  
C    2.5571145    0.0005565   -2.5996553  
C    1.1637436    0.0001547   -2.2210360  
C    1.1336964   -0.0000200   -0.7459470  
N    2.4483513   -0.0001429   -0.3402720  
C    0.0000000    0.0000000    0.0000000  
C   -1.2757371   -0.0000187   -0.6964417  
O   -2.3524597   -0.0000640   -0.1142316  
C   -1.2676493   -0.0000874   -2.2584081  
O   -2.3355762   -0.0004102   -2.8557296  
C    0.0181561    0.0001758   -2.9516297  
H    2.9547354    0.0006074   -3.5989102  
H    0.0150792    0.0003317   -4.0331628  
H    2.7563626    0.0012823    0.6148063  
C    6.4690086    0.0019755   -4.4192232  
C    7.5790612    0.0025230   -3.6450382  
C    7.0826146    0.0021761   -2.2775438  
C    5.6103559    0.0015082   -2.4155195  
N    5.2447512    0.0013071   -3.6686449  
C    4.7390845    0.0009613   -1.2727278  
C    5.3125313    0.0006873   -0.0477816  
O    4.6211393    0.0001823    1.1046145  
C    6.7952873    0.0009744    0.1242549  
O    7.2479825    0.0008234    1.2689327  
C    7.6676533    0.0015791   -1.0635589  
H    8.6077306    0.0030018   -3.9627098  
H    5.3014934    0.0000717    1.8019456  
H    8.7364301    0.0016561   -0.8963829  
H    6.4103417    0.0020016   -5.4960389  
C    0.8175213    0.6860729    2.3021913  
C    0.0000000    0.0000000    1.4700000  
C   -0.8887526   -0.7456559    2.3478473  
C   -0.4549825   -0.3816753    3.7138435  
N    0.5448156    0.4573574    3.6934124  
C   -1.0945674   -0.9182058    4.8835240  
C   -2.1210866   -1.7789155    4.6970523  
O   -2.8083856   -2.3554314    5.6976972  
C   -2.5824069   -2.1655116    3.3310774  
O   -3.5227682   -2.9541547    3.2362962  
C   -1.9100805   -1.6015804    2.1470656  
H   -0.7567140   -0.6349833    5.8697035  
H   -3.4728268   -2.9124471    5.2533954  
H   -2.2742832   -1.9066565    1.1752040  
H    1.6189533    1.3585343    2.0405121  
