44
34B 5A 14B 19B 40 12 28 26 7 7 2 7 1 1 2 0 nosym
C    3.1301149   -0.0010311   -1.7028252  
C    2.5367766   -0.0002767   -0.4864665  
C    1.1089904    0.0001028   -0.7656183  
C    1.0177870   -0.0004148   -2.2415132  
N    2.1993578   -0.0011611   -2.7963820  
C   -0.2459213   -0.0002877   -2.9257118  
C   -1.3675317   -0.0000605   -2.1698525  
O   -2.6129311    0.0000867   -2.6748493  
C   -1.3083587    0.0000910   -0.6783232  
O   -2.3693264    0.0004206   -0.0541692  
C    0.0000000    0.0000000    0.0000000  
H    3.0096016   -0.0001007    0.4807523  
H   -0.2829632   -0.0004687   -4.0053124  
H   -3.1967439    0.0002094   -1.8949037  
C    6.8847540    0.0010456    0.6986583  
C    5.5715645    0.0014847    0.3713773  
C    5.5475445   -0.0003219   -1.0832428  
C    6.9721658   -0.0016282   -1.4795213  
N    7.7607283   -0.0009152   -0.4392525  
C    7.3784667   -0.0036305   -2.8579268  
C    6.4057879   -0.0046865   -3.7977293  
O    6.6406176   -0.0065624   -5.1209422  
C    4.9592101   -0.0037856   -3.4295265  
O    4.1279718   -0.0047103   -4.3374155  
C    4.5679461   -0.0016854   -2.0086701  
H    4.7238869    0.0027738    1.0350919  
H    8.4267355   -0.0043455   -3.1187774  
H    5.7562728   -0.0069357   -5.5297048  
H    7.3236788    0.0019890    1.6837054  
C    0.8175213    0.6860729    2.3021913  
C    0.0000000    0.0000000    1.4700000  
C   -0.8887526   -0.7456559    2.3478473  
C   -0.4549825   -0.3816753    3.7138435  
N    0.5448156    0.4573574    3.6934124  
C   -1.0945674   -0.9182058    4.8835240  
C   -2.1210866   -1.7789155    4.6970523  
O   -2.8083856   -2.3554314    5.6976972  
C   -2.5824069   -2.1655116    3.3310774  
O   -3.5227682   -2.9541547    3.2362962  
C   -1.9100805   -1.6015804    2.1470656  
H   -0.7567140   -0.6349833    5.8697035  
H   -3.4728268   -2.9124471    5.2533954  
H   -2.2742832   -1.9066565    1.1752040  
H    1.6189533    1.3585343    2.0405121  
