44
34B 15A 24B 40 25 27 7 3 4 1 0 2 0 nosym
C    1.0965514    0.0001359   -0.8010305  
C    0.0000000    0.0000000    0.0000000  
C   -1.1546565    0.0001470   -0.8669508  
C   -0.6372019    0.0003521   -2.2486278  
N    0.7342868    0.0007339   -2.1395011  
C   -1.4147745    0.0001355   -3.3608712  
C   -2.8576054   -0.0001045   -3.1854454  
O   -3.6427786   -0.0002490   -4.1244897  
C   -3.4275844   -0.0000724   -1.7311659  
O   -4.6406828    0.0000334   -1.5710047  
C   -2.4891866   -0.0001090   -0.6116741  
H   -1.0150455    0.0001619   -4.3654242  
H   -2.8919121   -0.0002919    0.3920869  
H    2.1388271    0.0000663   -0.5261648  
C    2.8497499   -0.7283600   -3.3359973  
C    3.4914337   -0.5134518   -4.5133381  
C    2.6832169    0.4132002   -5.2702642  
C    1.5096736    0.7227770   -4.4313672  
N    1.6707637   -0.0012341   -3.2725974  
C    0.5071662    1.5634841   -4.7917769  
C    0.5893837    2.2061573   -6.0928331  
O   -0.2632816    2.9796310   -6.5087665  
C    1.8232399    1.8926660   -6.9978894  
O    1.9032027    2.4275868   -8.0954897  
C    2.8399720    0.9695598   -6.4999104  
H    4.4243720   -0.9539521   -4.8169814  
H   -0.3448598    1.7770164   -4.1614078  
H    3.6912431    0.7579555   -7.1325913  
H    3.1388483   -1.3569180   -2.5094220  
C    0.8175213    0.6860729    2.3021913  
C    0.0000000    0.0000000    1.4700000  
C   -0.8887526   -0.7456559    2.3478473  
C   -0.4549825   -0.3816753    3.7138435  
N    0.5448156    0.4573574    3.6934124  
C   -1.0945674   -0.9182058    4.8835240  
C   -2.1210866   -1.7789155    4.6970523  
O   -2.8083856   -2.3554314    5.6976972  
C   -2.5824069   -2.1655116    3.3310774  
O   -3.5227682   -2.9541547    3.2362962  
C   -1.9100805   -1.6015804    2.1470656  
H   -0.7567140   -0.6349833    5.8697035  
H   -3.4728268   -2.9124471    5.2533954  
H   -2.2742832   -1.9066565    1.1752040  
H    1.6189533    1.3585343    2.0405121  
