46
36B 21B 26B 42 28 29 7 7 4 1 0 2 0 nosym
C    1.1243415    0.0099159   -0.7919008  
C    0.7474084    0.0234036   -2.1148547  
C   -0.6787372    0.0234950   -2.1414699  
C   -1.1201741    0.0099353   -0.7935545  
N    0.0000000    0.0000000    0.0000000  
C   -2.4730813    0.0065388   -0.4408235  
C   -3.3971951    0.0173288   -1.4675053  
O   -4.7313510    0.0149472   -1.1793456  
C   -2.9763637    0.0305528   -2.8186317  
O   -4.0166458    0.0397846   -3.7247611  
C   -1.6418550    0.0336375   -3.1673478  
H   -2.8160168   -0.0039199    0.5845974  
H   -5.1938811    0.0234395   -2.0274371  
H   -3.6464651    0.0484770   -4.6127333  
H   -1.3497452    0.0436785   -4.2109230  
H    2.1062467    0.0051388   -0.3505413  
C    1.6628963    0.0337773   -3.2649305  
C    3.0207990    0.0335170   -3.2781792  
C    3.4282934    0.0462449   -4.6633223  
C    2.1875887    0.0540266   -5.4616843  
N    1.1532902    0.0455064   -4.5544668  
C    2.1461572    0.0670199   -6.8180832  
C    3.4077346    0.0735660   -7.5398279  
O    3.4759214    0.0851817   -8.7619223  
C    4.7339441    0.0652622   -6.7146583  
O    5.8022208    0.0703600   -7.3113331  
C    4.6507746    0.0516108   -5.2563212  
H    3.6636255    0.0251593   -2.4160202  
H    1.2252493    0.0726753   -7.3844809  
H    5.5736119    0.0461339   -4.6923482  
H    0.1784083    0.0494630   -4.7924529  
C    0.8175213    0.6860729    2.3021913  
C    0.0000000    0.0000000    1.4700000  
C   -0.8887526   -0.7456559    2.3478473  
C   -0.4549825   -0.3816753    3.7138435  
N    0.5448156    0.4573574    3.6934124  
C   -1.0945674   -0.9182058    4.8835240  
C   -2.1210866   -1.7789155    4.6970523  
O   -2.8083856   -2.3554314    5.6976972  
C   -2.5824069   -2.1655116    3.3310774  
O   -3.5227682   -2.9541547    3.2362962  
C   -1.9100805   -1.6015804    2.1470656  
H   -0.7567140   -0.6349833    5.8697035  
H   -3.4728268   -2.9124471    5.2533954  
H   -2.2742832   -1.9066565    1.1752040  
H    1.6189533    1.3585343    2.0405121  
