44
34B 14A 15A 24B 40 28 25 27 7 2 3 4 1 0 3 0 nosym
C    3.2573670   -0.0002919   -1.5109382  
C    2.5379467   -0.0001709   -0.3591962  
C    1.1435041    0.0000332   -0.7338497  
C    1.1092604   -0.0000081   -2.2088473  
N    2.4227560    0.0001911   -2.6182609  
C   -0.0265535   -0.0002522   -2.9515658  
C   -1.3003039   -0.0002638   -2.2514975  
O   -2.3786791   -0.0004131   -2.8306422  
C   -1.2877728    0.0000312   -0.6895603  
O   -2.3539955    0.0003306   -0.0892030  
C    0.0000000    0.0000000    0.0000000  
H    2.9384090   -0.0000367    0.6389240  
H   -0.0296294   -0.0004083   -4.0327228  
H    4.3270395   -0.0004763   -1.6439445  
C    5.7080840   -2.1452805   -4.5132719  
C    5.6084224   -1.7395369   -5.8005245  
C    4.4745324   -0.8282628   -5.8198390  
C    3.9954388   -0.7997401   -4.4211828  
N    4.7146922   -1.5697626   -3.6506442  
C    2.8699637   -0.0020523   -4.0185822  
C    2.2514673    0.7339941   -4.9699140  
O    1.1895399    1.5236028   -4.7356740  
C    2.7114661    0.7266532   -6.3899525  
O    2.1009843    1.4209400   -7.2026631  
C    3.8682942   -0.0998706   -6.7779363  
H    6.2279156   -2.0234847   -6.6339969  
H    0.9754904    1.9147006   -5.6019175  
H    4.1702538   -0.0775369   -7.8164695  
H    6.4257001   -2.8272440   -4.0855729  
C    0.8175213    0.6860729    2.3021913  
C    0.0000000    0.0000000    1.4700000  
C   -0.8887526   -0.7456559    2.3478473  
C   -0.4549825   -0.3816753    3.7138435  
N    0.5448156    0.4573574    3.6934124  
C   -1.0945674   -0.9182058    4.8835240  
C   -2.1210866   -1.7789155    4.6970523  
O   -2.8083856   -2.3554314    5.6976972  
C   -2.5824069   -2.1655116    3.3310774  
O   -3.5227682   -2.9541547    3.2362962  
C   -1.9100805   -1.6015804    2.1470656  
H   -0.7567140   -0.6349833    5.8697035  
H   -3.4728268   -2.9124471    5.2533954  
H   -2.2742832   -1.9066565    1.1752040  
H    1.6189533    1.3585343    2.0405121  
