44
29A 30A 39B 14A 19B 43 40 42 28 26 2 3 4 2 7 3 0 2 0 nosym
C    3.3321171    0.0004715   -1.3379333  
C    2.6974181    0.0000116   -2.5332310  
C    1.2800437   -0.0002119   -2.2052837  
C    1.2395034    0.0000643   -0.7271293  
N    2.4394063    0.0005459   -0.2131034  
C    0.0000000    0.0000000    0.0000000  
C   -1.1468701    0.0000634   -0.7169539  
O   -2.3742203    0.0000072   -0.1695490  
C   -1.1388767    0.0001607   -2.2096351  
O   -2.2206235    0.0000904   -2.7970409  
C    0.1454521    0.0001815   -2.9324239  
H   -2.9844345    0.0001025   -0.9290163  
H    0.1083575    0.0003681   -4.0135593  
H    4.3940037    0.0007619   -1.1498635  
C    6.1837857   -2.0089285   -4.4499580  
C    5.2722834   -1.6276454   -3.5250977  
C    4.3865221   -0.7114699   -4.2269164  
C    4.9246849   -0.6534665   -5.6029980  
N    5.9781792   -1.4120389   -5.7397737  
C    4.3189897    0.1572327   -6.6232855  
C    3.2251553    0.8769578   -6.2843814  
O    2.5591588    1.6759401   -7.1353318  
C    2.6579663    0.8392214   -4.9041516  
O    1.6604127    1.5201139   -4.6664696  
C    3.2973502   -0.0000932   -3.8752376  
H    5.2087776   -1.9307519   -2.4939967  
H    4.7335460    0.1807789   -7.6205316  
H    1.8320650    2.0505974   -6.6060689  
H    7.0137833   -2.6859598   -4.3246340  
C    2.5528530    2.1414826    2.8079335  
C    2.0663498    1.7338582    4.0032312  
C    0.9804344    0.8229586    3.6752840  
C    0.9495562    0.7966882    2.1971295  
N    1.8690446    1.5676019    1.6831036  
C    0.0000000    0.0000000    1.4700000  
C   -0.8785127   -0.7372425    2.1869543  
O   -1.8187535   -1.5261249    1.6395491  
C   -0.8723269   -0.7321790    3.6796354  
O   -1.7010379   -1.4274584    4.2670412  
C    0.1115397    0.0933559    4.4024240  
H    2.4028853    2.0163452    4.9860947  
H   -2.2861435   -1.9184361    2.3990168  
H    0.0832434    0.0693689    5.4835595  
H    3.3664920    2.8238276    2.6198634  
