46
36B 41B 5A 16A 17B 26B 43 45 13 29 27 28 7 4 7 2 3 4 2 1 3 0 nosym
C    3.3041269    0.0001177   -1.5420434  
C    2.5845370   -0.0004780   -0.3695856  
C    1.2040006   -0.0000007   -0.7283591  
C    1.1422372    0.0006038   -2.1454374  
N    2.4348634    0.0026110   -2.6077469  
C   -0.0655187    0.0008799   -2.8497915  
C   -1.2321772    0.0002326   -2.1101397  
O   -2.4392820    0.0001149   -2.7472517  
C   -1.1911209   -0.0000007   -0.6955263  
O   -2.4371523   -0.0002319   -0.1032858  
C    0.0000000    0.0000000    0.0000000  
H    3.0031535   -0.0000661    0.6222578  
H    2.7054623   -0.0071098   -3.5745264  
H   -0.1193555    0.0014846   -3.9297470  
H   -3.1132995   -0.0000646   -2.0551782  
H   -2.3200286   -0.0004070    0.8516413  
C    6.6801374   -0.0033360    1.2661376  
C    7.7093290   -0.0019930    0.3802269  
C    7.1273475   -0.0004471   -0.9411856  
C    5.6642441   -0.0009742   -0.7511361  
N    5.4589565   -0.0031398    0.6092836  
C    4.7577216    0.0005129   -1.7610467  
C    5.2563291    0.0025580   -3.1263018  
O    4.5202041    0.0039399   -4.1042685  
C    6.8020686    0.0028973   -3.3510093  
O    7.2336221    0.0043060   -4.4960074  
C    7.6791162    0.0014556   -2.1828320  
H    8.7566708   -0.0022583    0.6245394  
H    8.7481212    0.0019068   -2.3470031  
H    6.7110426   -0.0046694    2.3436036  
H    4.5604253   -0.0024244    1.0561486  
C    0.0000000    0.0000000    1.4700000  
C    1.0662921    0.0000102    2.3034270  
C    0.4961870   -0.0000064    3.6418889  
C   -0.9663858    0.0000850    3.4240247  
N   -1.2632773    0.0000084    2.1528658  
C   -1.8985362    0.0000517    4.5177257  
C   -1.3925775   -0.0004564    5.7720543  
O   -2.1456383   -0.0005410    6.8851312  
C    0.0786232   -0.0009323    6.0245000  
O    0.4683759   -0.0012588    7.1921102  
C    1.0143166   -0.0008442    4.8859032  
H    2.1107198   -0.0000632    2.0421868  
H   -2.9622183    0.0003270    4.3293377  
H   -1.5042274   -0.0009692    7.6184419  
H    2.0724152   -0.0013148    5.1109744  
