46
36B 21B 26B 42 28 30 7 7 4 1 0 2 0 nosym
C    1.1188644    0.0008217   -0.8003807  
C    0.0000000    0.0000000    0.0000000  
C   -1.1323862    0.0008904   -0.8673526  
C   -0.6382660    0.0019682   -2.1969280  
N    0.7324018    0.0038477   -2.1202240  
C   -1.4770912    0.0027325   -3.3154810  
C   -2.8395475    0.0020958   -3.0876858  
O   -3.7039195    0.0024443   -4.1440347  
C   -3.3517868    0.0013946   -1.7684332  
O   -4.7300492    0.0012389   -1.7073123  
C   -2.5248543    0.0009136   -0.6644818  
H   -1.1067568    0.0036993   -4.3313811  
H   -4.5940030    0.0021851   -3.7685130  
H   -4.9934599    0.0007287   -0.7819913  
H   -2.9462578    0.0005617    0.3339655  
H    2.1619894    0.0009344   -0.5342067  
C    1.6478436   -0.0100108   -3.2702998  
C    3.0011491   -0.0108197   -3.2583477  
C    3.3886134   -0.0271955   -4.6605257  
C    2.1085909   -0.0349146   -5.4008411  
N    1.0846831   -0.0248194   -4.5912109  
C    2.0603582   -0.0513627   -6.8369776  
C    3.2373639   -0.0593307   -7.5032578  
O    3.3413216   -0.0747247   -8.8430328  
C    4.5456733   -0.0514960   -6.7846299  
O    5.5777528   -0.0595972   -7.4554257  
C    4.5687189   -0.0346559   -5.3111614  
H    3.6556443   -0.0013698   -2.4035831  
H    1.1107924   -0.0569031   -7.3519570  
H    4.2998441   -0.0769639   -9.0173381  
H    5.5367605   -0.0293030   -4.8283609  
C    0.8175213    0.6860729    2.3021913  
C    0.0000000    0.0000000    1.4700000  
C   -0.8887526   -0.7456559    2.3478473  
C   -0.4549825   -0.3816753    3.7138435  
N    0.5448156    0.4573574    3.6934124  
C   -1.0945674   -0.9182058    4.8835240  
C   -2.1210866   -1.7789155    4.6970523  
O   -2.8083856   -2.3554314    5.6976972  
C   -2.5824069   -2.1655116    3.3310774  
O   -3.5227682   -2.9541547    3.2362962  
C   -1.9100805   -1.6015804    2.1470656  
H   -0.7567140   -0.6349833    5.8697035  
H   -3.4728268   -2.9124471    5.2533954  
H   -2.2742832   -1.9066565    1.1752040  
H    1.6189533    1.3585343    2.0405121  
