46
31A 36B 17A 26B 45 43 27 29 2 7 3 4 2 0 2 0 nosym
C    1.1188644    0.0008216   -0.8003803  
C    0.0000000    0.0000000    0.0000000  
C   -1.1323861    0.0008904   -0.8673527  
C   -0.6382659    0.0019681   -2.1969278  
N    0.7324021    0.0038477   -2.1202237  
C   -1.4770909    0.0027323   -3.3154808  
C   -2.8395470    0.0020956   -3.0876857  
O   -3.7039197    0.0024441   -4.1440352  
C   -3.3517867    0.0013945   -1.7684331  
O   -4.7300488    0.0012387   -1.7073126  
C   -2.5248543    0.0009134   -0.6644818  
H    1.3576318   -0.0056175   -2.9057039  
H   -4.5940027    0.0021847   -3.7685134  
H   -4.9934597    0.0007284   -0.7819917  
H   -2.9462579    0.0005617    0.3339654  
H    2.1619892    0.0009343   -0.5342064  
C    0.1166612   -0.7214352   -5.1522983  
C    0.3273817   -0.5035460   -6.4760038  
C   -0.6880503    0.4234398   -6.9169469  
C   -1.5135268    0.7299640   -5.7331300  
N   -0.9736289    0.0040466   -4.6965764  
C   -2.5793548    1.5700293   -5.7355911  
C   -2.9375135    2.2151842   -6.9878024  
O   -3.8806661    2.9883117   -7.0928597  
C   -2.0773292    1.9049442   -8.2541511  
O   -2.3694848    2.4419724   -9.3141074  
C   -0.9520247    0.9822472   -8.1269835  
H    1.1052566   -0.9422826   -7.0751993  
H   -3.1715395    1.7813064   -4.8560522  
H   -0.3613257    0.7729014   -9.0084437  
H    0.6660036   -1.3511272   -4.4714163  
C    2.3971438    2.0127888    3.1728260  
C    1.9431056    1.6308205    1.9564670  
C    0.8496017    0.7127664    2.2356185  
C    0.7794028    0.6545384    3.7115134  
N    1.6840587    1.4146091    4.2663826  
C   -0.1885723   -0.1578550    4.3957118  
C   -1.0476298   -0.8789867    3.6398520  
O   -2.0015663   -1.6796266    4.1448486  
C   -1.0022026   -0.8410666    2.1483229  
O   -1.8147390   -1.5232959    1.5241687  
C    0.0000000    0.0000000    1.4700000  
H    2.3054237    1.9346118    0.9892483  
H   -0.2170646   -0.1815267    5.4753125  
H   -2.4487139   -2.0549881    3.3649027  
H    3.2048689    2.6911772    3.3971983  
