44
29A 34B 0B 19B 24A 43 41 12 26 28 2 7 2 7 4 2 1 2 0 nosym
C    3.2798084    0.0005856   -1.4499649  
C    2.5571145    0.0005564   -2.5996554  
C    1.1637435    0.0001547   -2.2210363  
C    1.1336965   -0.0000200   -0.7459473  
N    2.4483513   -0.0001428   -0.3402723  
C    0.0000000    0.0000000    0.0000000  
C   -1.2757369   -0.0000187   -0.6964416  
O   -2.3524596   -0.0000640   -0.1142313  
C   -1.2676495   -0.0000874   -2.2584083  
O   -2.3355762   -0.0004102   -2.8557296  
C    0.0181561    0.0001758   -2.9516298  
H    2.9547353    0.0006073   -3.5989108  
H    4.3498552    0.0008611   -1.3200024  
H    2.7563627    0.0012824    0.6148060  
C    0.0139739    0.0003876   -4.4216236  
C    1.0778900    0.0017004   -5.2580811  
C    0.5039796    0.0012668   -6.5949157  
C   -0.9579664   -0.0005058   -6.3728913  
N   -1.2512401   -0.0009473   -5.1008932  
C   -1.8932240   -0.0013664   -7.4639360  
C   -1.3908368   -0.0001067   -8.7196989  
O   -2.1470609   -0.0007112   -9.8306292  
C    0.0796383    0.0020651   -8.9763293  
O    0.4660670    0.0029995  -10.1450434  
C    1.0185667    0.0028684   -7.8403988  
H    2.1230560    0.0029142   -4.9998129  
H   -2.9563649   -0.0028687   -7.2725229  
H   -1.5077396    0.0005462  -10.5657616  
H    2.0760193    0.0045649   -8.0684784  
C    2.3971438    2.0127888    3.1728260  
C    1.9431056    1.6308205    1.9564670  
C    0.8496017    0.7127664    2.2356185  
C    0.7794028    0.6545384    3.7115134  
N    1.6840587    1.4146091    4.2663826  
C   -0.1885723   -0.1578550    4.3957118  
C   -1.0476298   -0.8789867    3.6398520  
O   -2.0015663   -1.6796266    4.1448486  
C   -1.0022026   -0.8410666    2.1483229  
O   -1.8147390   -1.5232959    1.5241687  
C    0.0000000    0.0000000    1.4700000  
H    2.3054237    1.9346118    0.9892483  
H   -0.2170646   -0.1815267    5.4753125  
H   -2.4487139   -2.0549881    3.3649027  
H    3.2048689    2.6911772    3.3971983  
