46
31A 36B 21B 45 43 27 2 7 7 2 0 1 0 nosym
C    3.3041272    0.0001176   -1.5420431  
C    2.5845372   -0.0004781   -0.3695853  
C    1.2040006   -0.0000009   -0.7283588  
C    1.1422374    0.0006035   -2.1454372  
N    2.4348639    0.0026108   -2.6077465  
C   -0.0655182    0.0008795   -2.8497919  
C   -1.2321769    0.0002322   -2.1101399  
O   -2.4392814    0.0001143   -2.7472520  
C   -1.1911210   -0.0000008   -0.6955264  
O   -2.4371527   -0.0002321   -0.1032861  
C    0.0000000    0.0000000    0.0000000  
H    3.0031535   -0.0000660    0.6222584  
H   -0.1193549    0.0014841   -3.9297469  
H   -3.1132989   -0.0000650   -2.0551785  
H   -2.3200281   -0.0004071    0.8516412  
H    4.3686623    0.0004070   -1.7024293  
C    3.8455951   -0.6998093   -4.5966068  
C    2.8310664   -0.0116222   -4.0232753  
C    2.2085836    0.7190730   -5.1164810  
C    2.9960448    0.3450198   -6.3108735  
N    3.9569626   -0.4865466   -6.0123368  
C    2.6930692    0.8655753   -7.6156012  
C    1.6505601    1.7206277   -7.7223468  
O    1.2559038    2.2824585   -8.8776104  
C    0.8364764    2.1170959   -6.5356535  
O   -0.0980390    2.8998205   -6.7066631  
C    1.1672375    1.5695165   -5.2079942  
H    3.2854439    0.5752605   -8.4710069  
H    0.4938941    2.8389457   -8.6350912  
H    0.5532532    1.8813547   -4.3737223  
H    4.5497452   -1.3639108   -4.1210908  
C    2.3971438    2.0127888    3.1728260  
C    1.9431056    1.6308205    1.9564670  
C    0.8496017    0.7127664    2.2356185  
C    0.7794028    0.6545384    3.7115134  
N    1.6840587    1.4146091    4.2663826  
C   -0.1885723   -0.1578550    4.3957118  
C   -1.0476298   -0.8789867    3.6398520  
O   -2.0015663   -1.6796266    4.1448486  
C   -1.0022026   -0.8410666    2.1483229  
O   -1.8147390   -1.5232959    1.5241687  
C    0.0000000    0.0000000    1.4700000  
H    2.3054237    1.9346118    0.9892483  
H   -0.2170646   -0.1815267    5.4753125  
H   -2.4487139   -2.0549881    3.3649027  
H    3.2048689    2.6911772    3.3971983  
