44
34B 39B 5B 19B 24B 41 43 12 26 27 7 4 7 7 4 2 1 2 0 nosym
C    3.2573672   -0.0002920   -1.5109379  
C    2.5379469   -0.0001709   -0.3591960  
C    1.1435044    0.0000331   -0.7338498  
C    1.1092608   -0.0000083   -2.2088475  
N    2.4227563    0.0001909   -2.6182608  
C   -0.0265531   -0.0002524   -2.9515661  
C   -1.3003038   -0.0002640   -2.2514979  
O   -2.3786783   -0.0004133   -2.8306426  
C   -1.2877724    0.0000311   -0.6895607  
O   -2.3539956    0.0003306   -0.0892035  
C    0.0000000    0.0000000    0.0000000  
H    2.9384089   -0.0000367    0.6389238  
H   -0.0296289   -0.0004086   -4.0327230  
H    2.7280494   -0.0013407   -3.5742114  
C    4.7161333   -0.0005435   -1.6923255  
C    5.6957073   -0.0010599   -0.7518420  
C    6.9559346   -0.0010600   -1.4565858  
C    6.6279085   -0.0004681   -2.8950536  
N    5.2541458   -0.0005757   -2.9703248  
C    7.5472429    0.0001050   -3.8933156  
C    8.9536524   -0.0000850   -3.5265069  
O    9.8573567    0.0003297   -4.3521094  
C    9.3240212   -0.0009619   -2.0090644  
O   10.5048032   -0.0014355   -1.6881072  
C    8.2443367   -0.0012470   -1.0251269  
H    5.5518791   -0.0015840    0.3139566  
H    7.2854509    0.0006636   -4.9423028  
H    8.5092053   -0.0016495    0.0234762  
H    4.7240371    0.0012975   -3.8223983  
C    0.0000000    0.0000000    1.4700000  
C    1.0662921    0.0000102    2.3034270  
C    0.4961870   -0.0000064    3.6418889  
C   -0.9663858    0.0000850    3.4240247  
N   -1.2632773    0.0000084    2.1528658  
C   -1.8985362    0.0000517    4.5177257  
C   -1.3925775   -0.0004564    5.7720543  
O   -2.1456383   -0.0005410    6.8851312  
C    0.0786232   -0.0009323    6.0245000  
O    0.4683759   -0.0012588    7.1921102  
C    1.0143166   -0.0008442    4.8859032  
H    2.1107198   -0.0000632    2.0421868  
H   -2.9622183    0.0003270    4.3293377  
H   -1.5042274   -0.0009692    7.6184419  
H    2.0724152   -0.0013148    5.1109744  
