48
38B 16A 20A 21B 44 32 28 29 7 2 1 7 1 0 3 0 nosym
C    1.1188644    0.0008217   -0.8003807  
C    0.0000000    0.0000000    0.0000000  
C   -1.1323862    0.0008904   -0.8673526  
C   -0.6382660    0.0019682   -2.1969280  
N    0.7324018    0.0038477   -2.1202240  
C   -1.4770912    0.0027325   -3.3154810  
C   -2.8395475    0.0020958   -3.0876858  
O   -3.7039195    0.0024443   -4.1440347  
C   -3.3517868    0.0013946   -1.7684332  
O   -4.7300492    0.0012389   -1.7073123  
C   -2.5248543    0.0009136   -0.6644818  
H   -1.1067568    0.0036993   -4.3313811  
H   -4.5940030    0.0021851   -3.7685130  
H   -4.9934599    0.0007287   -0.7819913  
H   -2.9462578    0.0005617    0.3339655  
H    2.1619894    0.0009344   -0.5342067  
C    4.5872052   -2.1313027   -2.8760573  
C    3.4257616   -1.6618688   -2.3075958  
C    2.8225603   -0.7845975   -3.2568816  
C    3.6683566   -0.7581087   -4.3952372  
N    4.7314843   -1.5851520   -4.1299518  
C    3.3837512    0.0055772   -5.5312708  
C    2.2240413    0.7559604   -5.5180178  
O    1.8977517    1.5195620   -6.6012818  
C    1.3675643    0.7429384   -4.3914766  
O    0.2523239    1.5428637   -4.5318410  
C    1.6478436   -0.0100108   -3.2702998  
H    3.0590278   -1.9191273   -1.3286591  
H    5.4907264   -1.7742989   -4.7590434  
H    4.0243517    0.0301901   -6.4020331  
H    1.0629726    1.9557292   -6.3864164  
H   -0.2722933    1.4770481   -3.7280694  
H    5.3248310   -2.8113827   -2.4857258  
C    0.8175213    0.6860729    2.3021913  
C    0.0000000    0.0000000    1.4700000  
C   -0.8887526   -0.7456559    2.3478473  
C   -0.4549825   -0.3816753    3.7138435  
N    0.5448156    0.4573574    3.6934124  
C   -1.0945674   -0.9182058    4.8835240  
C   -2.1210866   -1.7789155    4.6970523  
O   -2.8083856   -2.3554314    5.6976972  
C   -2.5824069   -2.1655116    3.3310774  
O   -3.5227682   -2.9541547    3.2362962  
C   -1.9100805   -1.6015804    2.1470656  
H   -0.7567140   -0.6349833    5.8697035  
H   -3.4728268   -2.9124471    5.2533954  
H   -2.2742832   -1.9066565    1.1752040  
H    1.6189533    1.3585343    2.0405121  
