46
36B 41B 16A 20A 21B 43 45 29 30 28 7 4 2 1 7 2 0 3 0 nosym
C    3.3003551    0.0005277   -1.4738980  
C    2.5232820    0.0003498   -2.6090740  
C    1.1623207   -0.0001318   -2.1820099  
C    1.1711887    0.0000584   -0.7636138  
N    2.4852302   -0.0014919   -0.3662352  
C    0.0000000    0.0000000    0.0000000  
C   -1.2020382    0.0000521   -0.6806482  
O   -2.3759248    0.0003494    0.0157741  
C   -1.2314651   -0.0005111   -2.0955511  
O   -2.5054381   -0.0008036   -2.6250184  
C   -0.0764509   -0.0007271   -2.8495194  
H    2.8036266    0.0088182    0.5858670  
H   -3.0835635    0.0000348   -0.6418822  
H   -2.4360036   -0.0011526   -3.5845927  
H   -0.1304085   -0.0013419   -3.9319086  
H    4.3715552    0.0004895   -1.3667123  
C    5.8913008   -2.0917712   -4.5522448  
C    4.9784996   -1.6292454   -3.6595302  
C    4.1021074   -0.7349689   -4.3785862  
C    4.5825808   -0.7142849   -5.7734008  
N    5.6694222   -1.5569941   -5.8122141  
C    4.0183445    0.0134442   -6.7702721  
C    2.8607094    0.8310496   -6.4478779  
O    2.2818978    1.5221467   -7.2759255  
C    2.3349670    0.8245610   -4.9770421  
O    1.3612131    1.5092066   -4.6936263  
C    3.0267445   -0.0008950   -3.9901692  
H    4.9253047   -1.8851657   -2.6163191  
H    4.3863207    0.0143817   -7.7868851  
H    6.7075453   -2.7781454   -4.3956416  
H    6.2158974   -1.7548028   -6.6303123  
C    0.0000000    0.0000000    1.4700000  
C    1.0662921    0.0000102    2.3034270  
C    0.4961870   -0.0000064    3.6418889  
C   -0.9663858    0.0000850    3.4240247  
N   -1.2632773    0.0000084    2.1528658  
C   -1.8985362    0.0000517    4.5177257  
C   -1.3925775   -0.0004564    5.7720543  
O   -2.1456383   -0.0005410    6.8851312  
C    0.0786232   -0.0009323    6.0245000  
O    0.4683759   -0.0012588    7.1921102  
C    1.0143166   -0.0008442    4.8859032  
H    2.1107198   -0.0000632    2.0421868  
H   -2.9622183    0.0003270    4.3293377  
H   -1.5042274   -0.0009692    7.6184419  
H    2.0724152   -0.0013148    5.1109744  
