44
34B 19B 24B 40 26 28 7 7 4 1 0 2 0 nosym
C    3.2573670   -0.0002919   -1.5109382  
C    2.5379467   -0.0001709   -0.3591962  
C    1.1435041    0.0000332   -0.7338497  
C    1.1092604   -0.0000081   -2.2088473  
N    2.4227560    0.0001911   -2.6182609  
C   -0.0265535   -0.0002522   -2.9515658  
C   -1.3003039   -0.0002638   -2.2514975  
O   -2.3786791   -0.0004131   -2.8306422  
C   -1.2877728    0.0000312   -0.6895603  
O   -2.3539955    0.0003306   -0.0892030  
C    0.0000000    0.0000000    0.0000000  
H    2.9384090   -0.0000367    0.6389240  
H   -0.0296294   -0.0004083   -4.0327228  
H    4.3270395   -0.0004763   -1.6439445  
C    2.8699637   -0.0020523   -4.0185822  
C    4.1392622   -0.0032118   -4.4881140  
C    4.0033706   -0.0053035   -5.9365715  
C    2.5438431   -0.0052306   -6.1739823  
N    1.8743083   -0.0032482   -5.0533984  
C    1.9886048   -0.0069737   -7.4994231  
C    2.8521772   -0.0083217   -8.5403726  
O    2.4734347   -0.0100225   -9.8297882  
C    4.3304443   -0.0080618   -8.3332801  
O    5.0569370   -0.0094724   -9.3269738  
C    4.8753989   -0.0063046   -6.9639929  
H    5.0547097   -0.0026195   -3.9215174  
H    0.9180284   -0.0070839   -7.6435612  
H    3.3075333   -0.0106396  -10.3332083  
H    5.9518165   -0.0060558   -6.8564979  
C    0.8175213    0.6860729    2.3021913  
C    0.0000000    0.0000000    1.4700000  
C   -0.8887526   -0.7456559    2.3478473  
C   -0.4549825   -0.3816753    3.7138435  
N    0.5448156    0.4573574    3.6934124  
C   -1.0945674   -0.9182058    4.8835240  
C   -2.1210866   -1.7789155    4.6970523  
O   -2.8083856   -2.3554314    5.6976972  
C   -2.5824069   -2.1655116    3.3310774  
O   -3.5227682   -2.9541547    3.2362962  
C   -1.9100805   -1.6015804    2.1470656  
H   -0.7567140   -0.6349833    5.8697035  
H   -3.4728268   -2.9124471    5.2533954  
H   -2.2742832   -1.9066565    1.1752040  
H    1.6189533    1.3585343    2.0405121  
