44
29A 34B 10B 19B 24B 43 41 13 26 28 2 7 4 7 4 2 1 2 0 nosym
C    3.3321175    0.0004716   -1.3379333  
C    2.6974185    0.0000118   -2.5332309  
C    1.2800442   -0.0002116   -2.2052838  
C    1.2395036    0.0000644   -0.7271294  
N    2.4394064    0.0005460   -0.2131035  
C    0.0000000    0.0000000    0.0000000  
C   -1.1468696    0.0000635   -0.7169542  
O   -2.3742199    0.0000074   -0.1695490  
C   -1.1388767    0.0001608   -2.2096353  
O   -2.2206230    0.0000906   -2.7970411  
C    0.1454525    0.0001818   -2.9324239  
H    3.1367990   -0.0000649   -3.5160943  
H   -2.9844341    0.0001027   -0.9290168  
H    0.1083581    0.0003684   -4.0135593  
C    4.7795908    0.0008674   -1.0815721  
C    5.7862025    0.0008769   -1.9861782  
C    7.0047297    0.0013411   -1.1913881  
C    6.5351378    0.0016826    0.2107772  
N    5.2316827    0.0013264    0.2814350  
C    7.4495162    0.0021406    1.3193794  
C    8.7728602    0.0018635    1.0399234  
O    9.7375499    0.0022376    1.9755595  
C    9.2780076    0.0011450   -0.3647067  
O   10.4956961    0.0010506   -0.5448609  
C    8.3200398    0.0007289   -1.4846272  
H    5.7111088    0.0005127   -3.0601603  
H    7.0785139    0.0025898    2.3339073  
H   10.5714823    0.0018715    1.4718639  
H    8.7261894    0.0000955   -2.4872597  
C    2.3971438    2.0127888    3.1728260  
C    1.9431056    1.6308205    1.9564670  
C    0.8496017    0.7127664    2.2356185  
C    0.7794028    0.6545384    3.7115134  
N    1.6840587    1.4146091    4.2663826  
C   -0.1885723   -0.1578550    4.3957118  
C   -1.0476298   -0.8789867    3.6398520  
O   -2.0015663   -1.6796266    4.1448486  
C   -1.0022026   -0.8410666    2.1483229  
O   -1.8147390   -1.5232959    1.5241687  
C    0.0000000    0.0000000    1.4700000  
H    2.3054237    1.9346118    0.9892483  
H   -0.2170646   -0.1815267    5.4753125  
H   -2.4487139   -2.0549881    3.3649027  
H    3.2048689    2.6911772    3.3971983  
