46
31A 32A 41B 20A 21B 45 42 44 30 27 2 3 4 1 7 3 0 2 0 nosym
C    1.1188644    0.0008217   -0.8003807  
C    0.0000000    0.0000000    0.0000000  
C   -1.1323862    0.0008904   -0.8673526  
C   -0.6382660    0.0019682   -2.1969280  
N    0.7324018    0.0038477   -2.1202240  
C   -1.4770912    0.0027325   -3.3154810  
C   -2.8395475    0.0020958   -3.0876858  
O   -3.7039195    0.0024443   -4.1440347  
C   -3.3517868    0.0013946   -1.7684332  
O   -4.7300492    0.0012389   -1.7073123  
C   -2.5248543    0.0009136   -0.6644818  
H   -1.1067568    0.0036993   -4.3313811  
H   -4.5940030    0.0021851   -3.7685130  
H   -4.9934599    0.0007287   -0.7819913  
H   -2.9462578    0.0005617    0.3339655  
H    2.1619894    0.0009344   -0.5342067  
C    2.8039995   -0.7159430   -3.3653705  
C    1.6478436   -0.0100108   -3.2702998  
C    1.4957383    0.7174261   -4.5082560  
C    2.6664296    0.3749481   -5.3383046  
N    3.4206996   -0.4973443   -4.5879230  
C    2.8929120    0.8595962   -6.5855121  
C    1.9187473    1.7801243   -7.1477991  
O    2.0328502    2.2713023   -8.2631579  
C    0.6714799    2.1569269   -6.2863178  
O   -0.1553086    2.9312424   -6.7490451  
C    0.5367513    1.5697092   -4.9555756  
H    3.7580977    0.5955251   -7.1776521  
H   -0.3298165    1.8355607   -4.3655688  
H    3.2575063   -1.3773178   -2.6450894  
H    4.2849172   -0.9128960   -4.8837142  
C    2.5528530    2.1414826    2.8079335  
C    2.0663498    1.7338582    4.0032312  
C    0.9804344    0.8229586    3.6752840  
C    0.9495562    0.7966882    2.1971295  
N    1.8690446    1.5676019    1.6831036  
C    0.0000000    0.0000000    1.4700000  
C   -0.8785127   -0.7372425    2.1869543  
O   -1.8187535   -1.5261249    1.6395491  
C   -0.8723269   -0.7321790    3.6796354  
O   -1.7010379   -1.4274584    4.2670412  
C    0.1115397    0.0933559    4.4024240  
H    2.4028853    2.0163452    4.9860947  
H   -2.2861435   -1.9184361    2.3990168  
H    0.0832434    0.0693689    5.4835595  
H    3.3664920    2.8238276    2.6198634  
