48
33A 38B 0A 16A 17B 26A 47 45 15 32 27 31 2 7 2 2 3 4 2 1 3 0 nosym
C    3.3041273    0.0001178   -1.5420431  
C    2.5845371   -0.0004779   -0.3695856  
C    1.2040005   -0.0000007   -0.7283590  
C    1.1422373    0.0006038   -2.1454373  
N    2.4348641    0.0026111   -2.6077466  
C   -0.0655181    0.0008799   -2.8497918  
C   -1.2321768    0.0002325   -2.1101399  
O   -2.4392816    0.0001148   -2.7472520  
C   -1.1911210   -0.0000007   -0.6955263  
O   -2.4371525   -0.0002320   -0.1032863  
C    0.0000000    0.0000000    0.0000000  
H    3.0031536   -0.0000660    0.6222581  
H    2.7054629   -0.0071097   -3.5745261  
H   -3.1132988   -0.0000648   -2.0551785  
H   -2.3200280   -0.0004071    0.8516411  
H    4.3686620    0.0004072   -1.7024293  
C    2.3136482   -2.1180444   -5.9171371  
C    1.6624050   -1.6181594   -7.0209781  
C    0.6419635   -0.7441446   -6.5420234  
C    0.7194924   -0.7504913   -5.1257343  
N    1.7437755   -1.5963709   -4.7793980  
C   -0.1387082    0.0017019   -4.3179684  
C   -1.0923529    0.7746130   -4.9514882  
O   -1.9557353    1.5288504   -4.2107385  
C   -1.1856790    0.7938843   -6.3634859  
O   -2.1870617    1.6126762   -6.8432318  
C   -0.3395505    0.0518699   -7.1609864  
H    1.8935970   -1.8552466   -8.0453477  
H    2.0414321   -1.7936221   -3.8410620  
H   -2.5301606    1.9837418   -4.8403210  
H   -2.1819316    1.5683234   -7.8042788  
H   -0.4351247    0.0866802   -8.2399365  
H    3.1386334   -2.8065413   -5.8513309  
C    2.3971438    2.0127888    3.1728260  
C    1.9431056    1.6308205    1.9564670  
C    0.8496017    0.7127664    2.2356185  
C    0.7794028    0.6545384    3.7115134  
N    1.6840587    1.4146091    4.2663826  
C   -0.1885723   -0.1578550    4.3957118  
C   -1.0476298   -0.8789867    3.6398520  
O   -2.0015663   -1.6796266    4.1448486  
C   -1.0022026   -0.8410666    2.1483229  
O   -1.8147390   -1.5232959    1.5241687  
C    0.0000000    0.0000000    1.4700000  
H    2.3054237    1.9346118    0.9892483  
H   -0.2170646   -0.1815267    5.4753125  
H   -2.4487139   -2.0549881    3.3649027  
H    3.2048689    2.6911772    3.3971983  
