46
36B 41B 0A 17B 26A 43 45 15 27 29 7 4 2 3 4 2 1 2 0 nosym
C    3.3003543    0.0005277   -1.4738990  
C    2.5232811    0.0003499   -2.6090749  
C    1.1623199   -0.0001317   -2.1820104  
C    1.1711881    0.0000584   -0.7636144  
N    2.4852300   -0.0014918   -0.3662360  
C    0.0000000    0.0000000    0.0000000  
C   -1.2020384    0.0000520   -0.6806478  
O   -2.3759250    0.0003494    0.0157748  
C   -1.2314658   -0.0005111   -2.0955509  
O   -2.5054391   -0.0008036   -2.6250178  
C   -0.0764518   -0.0007271   -2.8495195  
H    2.8919951   -0.0005617   -3.6205306  
H    2.8036264    0.0088181    0.5858657  
H   -3.0835640    0.0000348   -0.6418817  
H   -2.4360050   -0.0011525   -3.5845919  
H    4.3715549    0.0004896   -1.3667139  
C    0.6778494   -0.7280274   -5.1604560  
C    0.3572093   -0.5121161   -6.4622422  
C   -0.7500355    0.4145350   -6.4749820  
C   -1.0503175    0.7230181   -5.0637910  
N   -0.1496418   -0.0015610   -4.3176961  
C   -2.0334661    1.5633980   -4.6528351  
C   -2.8505391    2.2068483   -5.6681673  
O   -3.7605416    2.9801053   -5.3993372  
C   -2.5503720    1.8945197   -7.1688855  
O   -3.2318472    2.4301017   -8.0326005  
C   -1.4639119    0.9716707   -7.4879569  
H    0.8410002   -0.9519517   -7.3161184  
H   -2.2371054    1.7761242   -3.6125524  
H   -1.2623895    0.7608734   -8.5294353  
H    1.4488979   -1.3568984   -4.7458536  
C    0.0000000    0.0000000    1.4700000  
C    1.0662921    0.0000102    2.3034270  
C    0.4961870   -0.0000064    3.6418889  
C   -0.9663858    0.0000850    3.4240247  
N   -1.2632773    0.0000084    2.1528658  
C   -1.8985362    0.0000517    4.5177257  
C   -1.3925775   -0.0004564    5.7720543  
O   -2.1456383   -0.0005410    6.8851312  
C    0.0786232   -0.0009323    6.0245000  
O    0.4683759   -0.0012588    7.1921102  
C    1.0143166   -0.0008442    4.8859032  
H    2.1107198   -0.0000632    2.0421868  
H   -2.9622183    0.0003270    4.3293377  
H   -1.5042274   -0.0009692    7.6184419  
H    2.0724152   -0.0013148    5.1109744  
