46
36B 41B 20A 21B 43 45 30 27 7 4 1 7 2 0 2 0 nosym
C    1.1243415    0.0099154   -0.7919009  
C    0.7474086    0.0234032   -2.1148547  
C   -0.6787371    0.0234950   -2.1414700  
C   -1.1201741    0.0099356   -0.7935548  
N    0.0000000    0.0000000    0.0000000  
C   -2.4730813    0.0065397   -0.4408236  
C   -3.3971949    0.0173298   -1.4675053  
O   -4.7313511    0.0149489   -1.1793459  
C   -2.9763635    0.0305536   -2.8186319  
O   -4.0166455    0.0397857   -3.7247614  
C   -1.6418548    0.0336378   -3.1673479  
H    1.4178728    0.0310000   -2.9571213  
H   -2.8160170   -0.0039188    0.5845970  
H   -5.1938805    0.0234411   -2.0274374  
H   -3.6464652    0.0484778   -4.6127335  
H    2.1062467    0.0051380   -0.3505414  
C   -0.2202355   -0.6516149   -5.1344350  
C   -1.2456309    0.0472573   -4.5828763  
C   -1.8641526    0.7992305   -5.6490859  
C   -1.1096578    0.4788445   -6.8758216  
N   -0.1264937   -0.4053864   -6.4958035  
C   -1.3839498    0.9898952   -8.1027265  
C   -2.4963846    1.9175569   -8.2230091  
O   -2.8229269    2.4319542   -9.2846432  
C   -3.3090726    2.2712878   -6.9368450  
O   -4.2476062    3.0513622   -7.0257225  
C   -2.9181800    1.6563731   -5.6707742  
H   -0.8181132    0.7417173   -8.9899386  
H   -3.4861123    1.9063688   -4.7849530  
H    0.4749729   -1.3256478   -4.6608800  
H    0.5530603   -0.8110839   -7.1127824  
C    0.0000000    0.0000000    1.4700000  
C    1.0662921    0.0000102    2.3034270  
C    0.4961870   -0.0000064    3.6418889  
C   -0.9663858    0.0000850    3.4240247  
N   -1.2632773    0.0000084    2.1528658  
C   -1.8985362    0.0000517    4.5177257  
C   -1.3925775   -0.0004564    5.7720543  
O   -2.1456383   -0.0005410    6.8851312  
C    0.0786232   -0.0009323    6.0245000  
O    0.4683759   -0.0012588    7.1921102  
C    1.0143166   -0.0008442    4.8859032  
H    2.1107198   -0.0000632    2.0421868  
H   -2.9622183    0.0003270    4.3293377  
H   -1.5042274   -0.0009692    7.6184419  
H    2.0724152   -0.0013148    5.1109744  
