46
31A 32A 41B 10A 17B 26B 45 42 44 15 27 29 2 3 4 4 3 4 3 1 2 0 nosym
C    3.3003548    0.0005276   -1.4738982  
C    2.5232817    0.0003497   -2.6090743  
C    1.1623206   -0.0001319   -2.1820098  
C    1.1711888    0.0000583   -0.7636138  
N    2.4852302   -0.0014919   -0.3662355  
C    0.0000000    0.0000000    0.0000000  
C   -1.2020381    0.0000520   -0.6806479  
O   -2.3759246    0.0003495    0.0157742  
C   -1.2314650   -0.0005112   -2.0955510  
O   -2.5054382   -0.0008036   -2.6250182  
C   -0.0764510   -0.0007271   -2.8495193  
H    2.8919962   -0.0005619   -3.6205297  
H    2.8036267    0.0088181    0.5858667  
H   -3.0835639    0.0000348   -0.6418822  
H   -2.4360046   -0.0011526   -3.5845924  
H   -0.1304090   -0.0013420   -3.9319086  
C    5.6726964   -0.0003330   -2.3740976  
C    6.9488236   -0.0025408   -1.9098028  
C    6.8722128   -0.0036206   -0.4679411  
C    5.4365529   -0.0018775   -0.1278402  
N    4.7630507    0.0004755   -1.3275395  
C    4.9461563   -0.0026252    1.1375511  
C    5.8957030   -0.0051009    2.2379558  
O    5.5533671   -0.0058845    3.4131606  
C    7.4209167   -0.0067252    1.9010212  
O    8.2297924   -0.0085062    2.8191590  
C    7.8277294   -0.0059965    0.4980405  
H    7.8418979   -0.0031412   -2.5089951  
H    3.8892554   -0.0014458    1.3652981  
H    8.8856421   -0.0073364    0.2732228  
H    5.3202454    0.0009882   -3.3927565  
C    2.5528530    2.1414826    2.8079335  
C    2.0663498    1.7338582    4.0032312  
C    0.9804344    0.8229586    3.6752840  
C    0.9495562    0.7966882    2.1971295  
N    1.8690446    1.5676019    1.6831036  
C    0.0000000    0.0000000    1.4700000  
C   -0.8785127   -0.7372425    2.1869543  
O   -1.8187535   -1.5261249    1.6395491  
C   -0.8723269   -0.7321790    3.6796354  
O   -1.7010379   -1.4274584    4.2670412  
C    0.1115397    0.0933559    4.4024240  
H    2.4028853    2.0163452    4.9860947  
H   -2.2861435   -1.9184361    2.3990168  
H    0.0832434    0.0693689    5.4835595  
H    3.3664920    2.8238276    2.6198634  
