44
34B 39B 14A 15A 24B 41 43 27 25 26 7 4 2 3 4 2 0 3 0 nosym
C    1.0965514    0.0001358   -0.8010308  
C    0.0000000    0.0000000    0.0000000  
C   -1.1546563    0.0001470   -0.8669511  
C   -0.6372017    0.0003520   -2.2486280  
N    0.7342868    0.0007338   -2.1395013  
C   -1.4147744    0.0001354   -3.3608714  
C   -2.8576054   -0.0001047   -3.1854457  
O   -3.6427786   -0.0002491   -4.1244901  
C   -3.4275843   -0.0000725   -1.7311661  
O   -4.6406831    0.0000333   -1.5710051  
C   -2.4891867   -0.0001090   -0.6116740  
H   -2.8919119   -0.0002919    0.3920869  
H    2.1388271    0.0000662   -0.5261651  
H    1.3735867   -0.0006098   -2.9130264  
C    1.9999911   -2.1070888   -5.1447770  
C    1.9105658   -1.6426495   -6.4177161  
C    0.7784244   -0.7475272   -6.4606981  
C    0.2115574   -0.7283875   -5.0986827  
N    0.9973781   -1.5733444   -4.3494010  
C   -0.8712833    0.0001712   -4.7267109  
C   -1.5219804    0.8200165   -5.7351662  
O   -2.5037644    1.5119154   -5.4992068  
C   -0.9387708    0.8148046   -7.1841815  
O   -1.4783601    1.5008670   -8.0417494  
C    0.2330290   -0.0112900   -7.4640107  
H    2.5631026   -1.8981142   -7.2335267  
H    0.6307982   -0.0091669   -8.4697439  
H    2.7138538   -2.7945382   -4.7208626  
H    0.8643839   -1.7702169   -3.3744133  
C    0.0000000    0.0000000    1.4700000  
C    1.0662921    0.0000102    2.3034270  
C    0.4961870   -0.0000064    3.6418889  
C   -0.9663858    0.0000850    3.4240247  
N   -1.2632773    0.0000084    2.1528658  
C   -1.8985362    0.0000517    4.5177257  
C   -1.3925775   -0.0004564    5.7720543  
O   -2.1456383   -0.0005410    6.8851312  
C    0.0786232   -0.0009323    6.0245000  
O    0.4683759   -0.0012588    7.1921102  
C    1.0143166   -0.0008442    4.8859032  
H    2.1107198   -0.0000632    2.0421868  
H   -2.9622183    0.0003270    4.3293377  
H   -1.5042274   -0.0009692    7.6184419  
H    2.0724152   -0.0013148    5.1109744  
