46
36B 16A 20A 21B 42 29 30 28 7 2 1 7 1 0 3 0 nosym
C    1.1188644    0.0008217   -0.8003807  
C    0.0000000    0.0000000    0.0000000  
C   -1.1323862    0.0008904   -0.8673526  
C   -0.6382660    0.0019682   -2.1969280  
N    0.7324018    0.0038477   -2.1202240  
C   -1.4770912    0.0027325   -3.3154810  
C   -2.8395475    0.0020958   -3.0876858  
O   -3.7039195    0.0024443   -4.1440347  
C   -3.3517868    0.0013946   -1.7684332  
O   -4.7300492    0.0012389   -1.7073123  
C   -2.5248543    0.0009136   -0.6644818  
H   -1.1067568    0.0036993   -4.3313811  
H   -4.5940030    0.0021851   -3.7685130  
H   -4.9934599    0.0007287   -0.7819913  
H   -2.9462578    0.0005617    0.3339655  
H    2.1619894    0.0009344   -0.5342067  
C    4.5412299   -2.0990458   -2.8732839  
C    3.3927945   -1.6299071   -2.3209434  
C    2.7903275   -0.7451835   -3.2900321  
C    3.6883337   -0.7373119   -4.4606359  
N    4.7307579   -1.5775627   -4.1440605  
C    3.4698859   -0.0211200   -5.5924727  
C    2.2703755    0.7967024   -5.6623073  
O    1.9845410    1.4779272   -6.6382847  
C    1.3053399    0.8036744   -4.4341122  
O    0.2924811    1.4886258   -4.4812228  
C    1.6478436   -0.0100108   -3.2702998  
H    3.0113365   -1.8754419   -1.3458453  
H    4.1412534   -0.0294742   -6.4398836  
H    5.2651713   -2.7816995   -2.4588175  
H    5.5083106   -1.7821921   -4.7445492  
C    0.8175213    0.6860729    2.3021913  
C    0.0000000    0.0000000    1.4700000  
C   -0.8887526   -0.7456559    2.3478473  
C   -0.4549825   -0.3816753    3.7138435  
N    0.5448156    0.4573574    3.6934124  
C   -1.0945674   -0.9182058    4.8835240  
C   -2.1210866   -1.7789155    4.6970523  
O   -2.8083856   -2.3554314    5.6976972  
C   -2.5824069   -2.1655116    3.3310774  
O   -3.5227682   -2.9541547    3.2362962  
C   -1.9100805   -1.6015804    2.1470656  
H   -0.7567140   -0.6349833    5.8697035  
H   -3.4728268   -2.9124471    5.2533954  
H   -2.2742832   -1.9066565    1.1752040  
H    1.6189533    1.3585343    2.0405121  
