46
36B 21B 42 27 7 7 1 0 1 0 nosym
C    1.1188644    0.0008217   -0.8003807  
C    0.0000000    0.0000000    0.0000000  
C   -1.1323862    0.0008904   -0.8673526  
C   -0.6382660    0.0019682   -2.1969280  
N    0.7324018    0.0038477   -2.1202240  
C   -1.4770912    0.0027325   -3.3154810  
C   -2.8395475    0.0020958   -3.0876858  
O   -3.7039195    0.0024443   -4.1440347  
C   -3.3517868    0.0013946   -1.7684332  
O   -4.7300492    0.0012389   -1.7073123  
C   -2.5248543    0.0009136   -0.6644818  
H   -1.1067568    0.0036993   -4.3313811  
H   -4.5940030    0.0021851   -3.7685130  
H   -4.9934599    0.0007287   -0.7819913  
H   -2.9462578    0.0005617    0.3339655  
H    2.1619894    0.0009344   -0.5342067  
C    2.8054197   -0.6982297   -3.4042819  
C    1.6478436   -0.0100108   -3.2702998  
C    1.4994875    0.7211731   -4.5192435  
C    2.6893841    0.3473385   -5.3135849  
N    3.4585367   -0.4845313   -4.6652127  
C    2.9176247    0.8683828   -6.6332461  
C    1.9987259    1.7236938   -7.1366372  
O    2.0843853    2.2859846   -8.3542300  
C    0.7872973    2.1199518   -6.3597325  
O   -0.0071225    2.9029327   -6.8803655  
C    0.5757367    1.5718701   -5.0081505  
H    3.7959804    0.5782184   -7.1911041  
H    1.2880809    2.8425568   -8.4268863  
H   -0.3143087    1.8835693   -4.4781578  
H    3.2692067   -1.3626369   -2.6926372  
C    0.8175213    0.6860729    2.3021913  
C    0.0000000    0.0000000    1.4700000  
C   -0.8887526   -0.7456559    2.3478473  
C   -0.4549825   -0.3816753    3.7138435  
N    0.5448156    0.4573574    3.6934124  
C   -1.0945674   -0.9182058    4.8835240  
C   -2.1210866   -1.7789155    4.6970523  
O   -2.8083856   -2.3554314    5.6976972  
C   -2.5824069   -2.1655116    3.3310774  
O   -3.5227682   -2.9541547    3.2362962  
C   -1.9100805   -1.6015804    2.1470656  
H   -0.7567140   -0.6349833    5.8697035  
H   -3.4728268   -2.9124471    5.2533954  
H   -2.2742832   -1.9066565    1.1752040  
H    1.6189533    1.3585343    2.0405121  
