44
29A 34B 14A 18A 19B 43 41 27 28 26 2 7 2 1 7 2 0 3 0 nosym
C    3.2798086    0.0005858   -1.4499646  
C    2.5571145    0.0005567   -2.5996553  
C    1.1637436    0.0001549   -2.2210360  
C    1.1336963   -0.0000199   -0.7459471  
N    2.4483514   -0.0001427   -0.3402720  
C    0.0000000    0.0000000    0.0000000  
C   -1.2757367   -0.0000186   -0.6964417  
O   -2.3524597   -0.0000640   -0.1142315  
C   -1.2676494   -0.0000872   -2.2584082  
O   -2.3355761   -0.0004100   -2.8557297  
C    0.0181560    0.0001762   -2.9516297  
H    0.0150792    0.0003321   -4.0331631  
H    4.3498549    0.0008613   -1.3200019  
H    2.7563626    0.0012824    0.6148062  
C    5.9816657   -2.0880605   -4.4453418  
C    5.0429439   -1.6267497   -3.5792766  
C    4.1873009   -0.7324969   -4.3229314  
C    4.7081984   -0.7105026   -5.7031388  
N    5.7962504   -1.5525077   -5.7108633  
C    4.1727805    0.0175984   -6.7155129  
C    3.0057183    0.8342500   -6.4264094  
O    2.4508359    1.5255875   -7.2704821  
C    2.4373468    0.8263678   -4.9715221  
O    1.4553087    1.5102023   -4.7161161  
C    3.1006058    0.0006265   -3.9654949  
H    4.9595396   -1.8834596   -2.5382401  
H    4.5702215    0.0195020   -7.7209712  
H    6.7934414   -2.7740405   -4.2655065  
H    6.3664578   -1.7493833   -6.5128302  
C    2.3971438    2.0127888    3.1728260  
C    1.9431056    1.6308205    1.9564670  
C    0.8496017    0.7127664    2.2356185  
C    0.7794028    0.6545384    3.7115134  
N    1.6840587    1.4146091    4.2663826  
C   -0.1885723   -0.1578550    4.3957118  
C   -1.0476298   -0.8789867    3.6398520  
O   -2.0015663   -1.6796266    4.1448486  
C   -1.0022026   -0.8410666    2.1483229  
O   -1.8147390   -1.5232959    1.5241687  
C    0.0000000    0.0000000    1.4700000  
H    2.3054237    1.9346118    0.9892483  
H   -0.2170646   -0.1815267    5.4753125  
H   -2.4487139   -2.0549881    3.3649027  
H    3.2048689    2.6911772    3.3971983  
