46
36B 20A 21B 42 30 27 7 1 7 1 0 2 0 nosym
C    1.1188644    0.0008216   -0.8003803  
C    0.0000000    0.0000000    0.0000000  
C   -1.1323861    0.0008904   -0.8673527  
C   -0.6382659    0.0019681   -2.1969278  
N    0.7324021    0.0038477   -2.1202237  
C   -1.4770909    0.0027323   -3.3154808  
C   -2.8395470    0.0020956   -3.0876857  
O   -3.7039197    0.0024441   -4.1440352  
C   -3.3517867    0.0013945   -1.7684331  
O   -4.7300488    0.0012387   -1.7073126  
C   -2.5248543    0.0009134   -0.6644818  
H    1.3576318   -0.0056175   -2.9057039  
H   -4.5940027    0.0021847   -3.7685134  
H   -4.9934597    0.0007284   -0.7819917  
H   -2.9462579    0.0005617    0.3339654  
H    2.1619892    0.0009343   -0.5342064  
C    0.0907987   -0.6992461   -5.1618157  
C   -0.9736289    0.0040466   -4.6965764  
C   -1.5084784    0.7463572   -5.8136019  
C   -0.6623474    0.4154838   -6.9760885  
N    0.2885837   -0.4649754   -6.5141238  
C   -0.8417392    0.9156036   -8.2248493  
C   -1.9414394    1.8417271   -8.4381326  
O   -2.1855828    2.3466278   -9.5261454  
C   -2.8501340    2.2064443   -7.2211437  
O   -3.7788892    2.9853321   -7.3884992  
C   -2.5575126    1.6028557   -5.9234903  
H   -0.2096919    0.6598496   -9.0639059  
H   -3.1915419    1.8604144   -5.0859974  
H    0.7475151   -1.3688068   -4.6304948  
H    1.0132766   -0.8758185   -7.0736556  
C    0.8175213    0.6860729    2.3021913  
C    0.0000000    0.0000000    1.4700000  
C   -0.8887526   -0.7456559    2.3478473  
C   -0.4549825   -0.3816753    3.7138435  
N    0.5448156    0.4573574    3.6934124  
C   -1.0945674   -0.9182058    4.8835240  
C   -2.1210866   -1.7789155    4.6970523  
O   -2.8083856   -2.3554314    5.6976972  
C   -2.5824069   -2.1655116    3.3310774  
O   -3.5227682   -2.9541547    3.2362962  
C   -1.9100805   -1.6015804    2.1470656  
H   -0.7567140   -0.6349833    5.8697035  
H   -3.4728268   -2.9124471    5.2533954  
H   -2.2742832   -1.9066565    1.1752040  
H    1.6189533    1.3585343    2.0405121  
