46
31A 32A 41B 0A 16A 17B 26A 45 42 44 15 30 27 29 2 3 4 2 2 3 4 3 1 3 0 nosym
C    3.3003543    0.0005277   -1.4738990  
C    2.5232811    0.0003499   -2.6090749  
C    1.1623199   -0.0001317   -2.1820104  
C    1.1711881    0.0000584   -0.7636144  
N    2.4852300   -0.0014918   -0.3662360  
C    0.0000000    0.0000000    0.0000000  
C   -1.2020384    0.0000520   -0.6806478  
O   -2.3759250    0.0003494    0.0157748  
C   -1.2314658   -0.0005111   -2.0955509  
O   -2.5054391   -0.0008036   -2.6250178  
C   -0.0764518   -0.0007271   -2.8495195  
H    2.8919951   -0.0005617   -3.6205306  
H    2.8036264    0.0088181    0.5858657  
H   -3.0835640    0.0000348   -0.6418817  
H   -2.4360050   -0.0011525   -3.5845919  
H    4.3715549    0.0004896   -1.3667139  
C    2.3339066   -2.1433062   -5.7798819  
C    1.7884032   -1.7364545   -6.9497009  
C    0.7199604   -0.8255800   -6.5686015  
C    0.7627106   -0.7984771   -5.0907576  
N    1.7068228   -1.5689204   -4.6227203  
C   -0.1496418   -0.0015610   -4.3176961  
C   -1.0629253    0.7351040   -4.9904311  
O   -1.9749205    1.5241141   -4.3973304  
C   -1.1310653    0.7291949   -6.4815658  
O   -1.9881494    1.4239799   -7.0273692  
C   -0.1842224   -0.0965588   -7.2519838  
H    2.0756482   -2.0194337   -7.9479437  
H   -2.4796313    1.9159035   -5.1328039  
H   -0.2663177   -0.0731906   -8.3303830  
H    3.1560519   -2.8253862   -5.6321754  
C    2.5528530    2.1414826    2.8079335  
C    2.0663498    1.7338582    4.0032312  
C    0.9804344    0.8229586    3.6752840  
C    0.9495562    0.7966882    2.1971295  
N    1.8690446    1.5676019    1.6831036  
C    0.0000000    0.0000000    1.4700000  
C   -0.8785127   -0.7372425    2.1869543  
O   -1.8187535   -1.5261249    1.6395491  
C   -0.8723269   -0.7321790    3.6796354  
O   -1.7010379   -1.4274584    4.2670412  
C    0.1115397    0.0933559    4.4024240  
H    2.4028853    2.0163452    4.9860947  
H   -2.2861435   -1.9184361    2.3990168  
H    0.0832434    0.0693689    5.4835595  
H    3.3664920    2.8238276    2.6198634  
