46
36B 41B 17A 26B 43 45 27 29 7 4 3 4 2 0 2 0 nosym
C    3.3003551    0.0005277   -1.4738980  
C    2.5232820    0.0003498   -2.6090740  
C    1.1623207   -0.0001318   -2.1820099  
C    1.1711887    0.0000584   -0.7636138  
N    2.4852302   -0.0014919   -0.3662352  
C    0.0000000    0.0000000    0.0000000  
C   -1.2020382    0.0000521   -0.6806482  
O   -2.3759248    0.0003494    0.0157741  
C   -1.2314651   -0.0005111   -2.0955511  
O   -2.5054381   -0.0008036   -2.6250184  
C   -0.0764509   -0.0007271   -2.8495194  
H    2.8036266    0.0088182    0.5858670  
H   -3.0835635    0.0000348   -0.6418822  
H   -2.4360036   -0.0011526   -3.5845927  
H   -0.1304085   -0.0013419   -3.9319086  
H    4.3715552    0.0004895   -1.3667123  
C    4.1171242   -0.7271062   -4.4445137  
C    4.3278185   -0.5117036   -5.7686303  
C    3.3122727    0.4143190   -6.2113316  
C    2.4867580    0.7229877   -5.0280992  
N    3.0267445   -0.0008950   -3.9901692  
C    1.4208269    1.5629158   -5.0321547  
C    1.0625892    2.2056490   -6.2855878  
O    0.1193415    2.9784598   -6.3921130  
C    1.9228121    1.8931123   -7.5513454  
O    1.6305917    2.4280920   -8.6123193  
C    3.0482303    0.9707966   -7.4224265  
H    5.1057478   -0.9514809   -6.3669918  
H    0.8286154    1.7757888   -4.1530187  
H    3.6389555    0.7598509   -8.3034881  
H    4.6665438   -1.3554374   -3.7624378  
C    0.0000000    0.0000000    1.4700000  
C    1.0662921    0.0000102    2.3034270  
C    0.4961870   -0.0000064    3.6418889  
C   -0.9663858    0.0000850    3.4240247  
N   -1.2632773    0.0000084    2.1528658  
C   -1.8985362    0.0000517    4.5177257  
C   -1.3925775   -0.0004564    5.7720543  
O   -2.1456383   -0.0005410    6.8851312  
C    0.0786232   -0.0009323    6.0245000  
O    0.4683759   -0.0012588    7.1921102  
C    1.0143166   -0.0008442    4.8859032  
H    2.1107198   -0.0000632    2.0421868  
H   -2.9622183    0.0003270    4.3293377  
H   -1.5042274   -0.0009692    7.6184419  
H    2.0724152   -0.0013148    5.1109744  
