46
31A 36B 5B 21B 45 43 13 27 2 7 7 7 2 1 1 0 nosym
C    3.3041269    0.0001177   -1.5420434  
C    2.5845370   -0.0004780   -0.3695856  
C    1.2040006   -0.0000007   -0.7283591  
C    1.1422372    0.0006038   -2.1454374  
N    2.4348634    0.0026110   -2.6077469  
C   -0.0655187    0.0008799   -2.8497915  
C   -1.2321772    0.0002326   -2.1101397  
O   -2.4392820    0.0001149   -2.7472517  
C   -1.1911209   -0.0000007   -0.6955263  
O   -2.4371523   -0.0002319   -0.1032858  
C    0.0000000    0.0000000    0.0000000  
H    3.0031535   -0.0000661    0.6222578  
H    2.7054623   -0.0071098   -3.5745264  
H   -0.1193555    0.0014846   -3.9297470  
H   -3.1132995   -0.0000646   -2.0551782  
H   -2.3200286   -0.0004070    0.8516413  
C    5.7396274   -0.0005885   -0.8296827  
C    4.7577216    0.0005129   -1.7610467  
C    5.4529346    0.0020398   -3.0390045  
C    6.8880473    0.0017377   -2.6825835  
N    7.0622966    0.0001185   -1.3888972  
C    7.9203001    0.0029230   -3.6823533  
C    7.5363310    0.0039565   -4.9792345  
O    8.3921598    0.0051301   -6.0153795  
C    6.0959296    0.0039161   -5.3709031  
O    5.8193621    0.0050172   -6.5703737  
C    5.0558661    0.0027324   -4.3267803  
H    8.9611542    0.0028765   -3.3933335  
H    7.8236441    0.0056347   -6.8065444  
H    4.0240702    0.0026268   -4.6517836  
H    5.6367314   -0.0018741    0.2438088  
C    2.3971438    2.0127888    3.1728260  
C    1.9431056    1.6308205    1.9564670  
C    0.8496017    0.7127664    2.2356185  
C    0.7794028    0.6545384    3.7115134  
N    1.6840587    1.4146091    4.2663826  
C   -0.1885723   -0.1578550    4.3957118  
C   -1.0476298   -0.8789867    3.6398520  
O   -2.0015663   -1.6796266    4.1448486  
C   -1.0022026   -0.8410666    2.1483229  
O   -1.8147390   -1.5232959    1.5241687  
C    0.0000000    0.0000000    1.4700000  
H    2.3054237    1.9346118    0.9892483  
H   -0.2170646   -0.1815267    5.4753125  
H   -2.4487139   -2.0549881    3.3649027  
H    3.2048689    2.6911772    3.3971983  
