46
36B 10B 21B 26B 42 15 28 29 7 4 7 4 1 1 2 0 nosym
C    3.3003548    0.0005276   -1.4738982  
C    2.5232817    0.0003497   -2.6090743  
C    1.1623206   -0.0001319   -2.1820098  
C    1.1711888    0.0000583   -0.7636138  
N    2.4852302   -0.0014919   -0.3662355  
C    0.0000000    0.0000000    0.0000000  
C   -1.2020381    0.0000520   -0.6806479  
O   -2.3759246    0.0003495    0.0157742  
C   -1.2314650   -0.0005112   -2.0955510  
O   -2.5054382   -0.0008036   -2.6250182  
C   -0.0764510   -0.0007271   -2.8495193  
H    2.8919962   -0.0005619   -3.6205297  
H    2.8036267    0.0088181    0.5858667  
H   -3.0835639    0.0000348   -0.6418822  
H   -2.4360046   -0.0011526   -3.5845924  
H   -0.1304090   -0.0013420   -3.9319086  
C    4.7630507    0.0004755   -1.3275395  
C    5.7197932    0.0016002   -2.2912395  
C    6.9965557    0.0009190   -1.6169148  
C    6.7031140   -0.0007356   -0.1709966  
N    5.3315510   -0.0005303   -0.0628080  
C    7.6461194   -0.0021759    0.8049349  
C    9.0433296   -0.0018645    0.4045104  
O    9.9665695   -0.0030126    1.2082066  
C    9.3772083    0.0001309   -1.1213750  
O   10.5499553    0.0007164   -1.4705513  
C    8.2742424    0.0012903   -2.0791417  
H    5.5504518    0.0029555   -3.3532823  
H    7.4095540   -0.0035070    1.8598967  
H    8.5138925    0.0024646   -3.1337934  
H    4.8220247   -0.0029951    0.8017292  
C    0.8175213    0.6860729    2.3021913  
C    0.0000000    0.0000000    1.4700000  
C   -0.8887526   -0.7456559    2.3478473  
C   -0.4549825   -0.3816753    3.7138435  
N    0.5448156    0.4573574    3.6934124  
C   -1.0945674   -0.9182058    4.8835240  
C   -2.1210866   -1.7789155    4.6970523  
O   -2.8083856   -2.3554314    5.6976972  
C   -2.5824069   -2.1655116    3.3310774  
O   -3.5227682   -2.9541547    3.2362962  
C   -1.9100805   -1.6015804    2.1470656  
H   -0.7567140   -0.6349833    5.8697035  
H   -3.4728268   -2.9124471    5.2533954  
H   -2.2742832   -1.9066565    1.1752040  
H    1.6189533    1.3585343    2.0405121  
