48
38B 43B 17A 26B 45 47 27 31 7 4 3 4 2 0 2 0 nosym
C    1.1243415    0.0099159   -0.7919008  
C    0.7474084    0.0234036   -2.1148547  
C   -0.6787372    0.0234950   -2.1414699  
C   -1.1201741    0.0099353   -0.7935545  
N    0.0000000    0.0000000    0.0000000  
C   -2.4730813    0.0065388   -0.4408235  
C   -3.3971951    0.0173288   -1.4675053  
O   -4.7313510    0.0149472   -1.1793456  
C   -2.9763637    0.0305528   -2.8186317  
O   -4.0166458    0.0397846   -3.7247611  
C   -1.6418550    0.0336375   -3.1673478  
H   -2.8160168   -0.0039199    0.5845974  
H   -5.1938811    0.0234395   -2.0274371  
H   -3.6464651    0.0484770   -4.6127333  
H   -1.3497452    0.0436785   -4.2109230  
H    2.1062467    0.0051388   -0.3505413  
C    2.8388023   -0.6745891   -3.3474592  
C    3.4422155   -0.4130089   -4.5557368  
C    2.5991221    0.5024942   -5.2526211  
C    1.4867945    0.7658808   -4.4128110  
N    1.6628963    0.0337773   -3.2649305  
C    0.4498619    1.6290305   -4.7795965  
C    0.5375634    2.2376108   -6.0165754  
O   -0.4473456    3.0899606   -6.4245798  
C    1.6393020    1.9872129   -6.8688022  
O    1.5811198    2.6683001   -8.0671672  
C    2.6624879    1.1356032   -6.5077236  
H    4.3747241   -0.8315172   -4.8937781  
H   -0.4006967    1.8338567   -4.1441452  
H   -0.1937588    3.3992915   -7.3039399  
H    2.3616208    2.4436646   -8.5828808  
H    3.4935053    0.9632029   -7.1816424  
H    3.1534655   -1.3115159   -2.5385894  
C    0.0000000    0.0000000    1.4700000  
C    1.0662921    0.0000102    2.3034270  
C    0.4961870   -0.0000064    3.6418889  
C   -0.9663858    0.0000850    3.4240247  
N   -1.2632773    0.0000084    2.1528658  
C   -1.8985362    0.0000517    4.5177257  
C   -1.3925775   -0.0004564    5.7720543  
O   -2.1456383   -0.0005410    6.8851312  
C    0.0786232   -0.0009323    6.0245000  
O    0.4683759   -0.0012588    7.1921102  
C    1.0143166   -0.0008442    4.8859032  
H    2.1107198   -0.0000632    2.0421868  
H   -2.9622183    0.0003270    4.3293377  
H   -1.5042274   -0.0009692    7.6184419  
H    2.0724152   -0.0013148    5.1109744  
