44
34B 39B 19B 41 43 25 7 4 7 2 0 1 0 nosym
C    3.2798086    0.0005858   -1.4499646  
C    2.5571145    0.0005567   -2.5996553  
C    1.1637436    0.0001549   -2.2210360  
C    1.1336963   -0.0000199   -0.7459471  
N    2.4483514   -0.0001427   -0.3402720  
C    0.0000000    0.0000000    0.0000000  
C   -1.2757367   -0.0000186   -0.6964417  
O   -2.3524597   -0.0000640   -0.1142315  
C   -1.2676494   -0.0000872   -2.2584082  
O   -2.3355761   -0.0004100   -2.8557297  
C    0.0181560    0.0001762   -2.9516297  
H    0.0150792    0.0003321   -4.0331631  
H    4.3498549    0.0008613   -1.3200019  
H    2.7563626    0.0012824    0.6148062  
C    4.1687673   -0.6842813   -4.4361449  
C    3.1006058    0.0006265   -3.9654949  
C    2.5984214    0.7451005   -5.1100771  
C    3.5069658    0.3817820   -6.2187390  
N    4.4294535   -0.4558751   -5.8297189  
C    3.3444620    0.9174874   -7.5422566  
C    2.3206223    1.7767749   -7.7489247  
O    2.0512372    2.3523921   -8.9330433  
C    1.3864585    2.1626710   -6.6504786  
O    0.4766648    2.9500151   -6.9104514  
C    1.5741207    1.5996093   -5.3015272  
H    4.0233547    0.6347769   -8.3335145  
H    1.2688874    2.9084720   -8.7661408  
H    0.8760110    1.9041377   -4.5333249  
H    4.8175342   -1.3556517   -3.8963885  
C    0.0000000    0.0000000    1.4700000  
C    1.0662921    0.0000102    2.3034270  
C    0.4961870   -0.0000064    3.6418889  
C   -0.9663858    0.0000850    3.4240247  
N   -1.2632773    0.0000084    2.1528658  
C   -1.8985362    0.0000517    4.5177257  
C   -1.3925775   -0.0004564    5.7720543  
O   -2.1456383   -0.0005410    6.8851312  
C    0.0786232   -0.0009323    6.0245000  
O    0.4683759   -0.0012588    7.1921102  
C    1.0143166   -0.0008442    4.8859032  
H    2.1107198   -0.0000632    2.0421868  
H   -2.9622183    0.0003270    4.3293377  
H   -1.5042274   -0.0009692    7.6184419  
H    2.0724152   -0.0013148    5.1109744  
