44
34B 5A 14A 18B 19B 40 12 27 28 26 7 7 2 1 7 1 1 3 0 nosym
C    0.0000000    0.0000000    0.0000000  
C    1.0541691   -0.0001721   -0.8560389  
C    0.5103144   -0.0000453   -2.1935955  
C   -0.9576364    0.0002460   -2.0455736  
N   -1.2018455   -0.0001391   -0.6915972  
C   -1.8348304    0.0008318   -3.0810613  
C   -1.2972837    0.0009738   -4.4314612  
O   -2.0050660    0.0014267   -5.4301326  
C    0.2542635    0.0004186   -4.6117571  
O    0.7184684    0.0002259   -5.7439121  
C    1.0974561    0.0000875   -3.4189128  
H    2.0940752   -0.0005483   -0.5817980  
H   -2.9081043    0.0011669   -2.9507069  
H   -2.1128194    0.0014912   -0.2706796  
C    4.3636280   -2.0897860   -1.3068091  
C    3.1526643   -1.6280930   -1.7123725  
C    3.3926037   -0.7336530   -2.8201819  
C    4.8530876   -0.7119655   -3.0282847  
N    5.3836010   -1.5543089   -2.0785990  
C    5.4827011    0.0161949   -3.9848796  
C    4.6675281    0.8332390   -4.8683202  
O    5.1402568    1.5246597   -5.7609376  
C    3.1187357    0.8256862   -4.6658597  
O    2.4221612    1.5098520   -5.4033974  
C    2.5562221   -0.0001550   -3.6003000  
H    2.2000529   -1.8846674   -1.2842197  
H    6.5552928    0.0178695   -4.1207279  
H    4.5967581   -2.7759989   -0.5089045  
H    6.3609949   -1.7514457   -1.9650849  
C    1.0672568    0.0000697    2.3021913  
C    0.0000000    0.0000000    1.4700000  
C   -1.1601224    0.0000736    2.3478473  
C   -0.5938729    0.0000769    3.7138435  
N    0.7113367    0.0001554    3.6934124  
C   -1.4286986    0.0001879    4.8835240  
C   -2.7683114    0.0006799    4.6970523  
O   -3.6653903    0.0008304    5.6976972  
C   -3.3702025    0.0010610    3.3310774  
O   -4.5974910    0.0013779    3.2362962  
C   -2.4926826    0.0008943    2.1470656  
H   -0.9878360   -0.0000190    5.8697035  
H   -4.5324246    0.0012261    5.2533954  
H   -2.9677772    0.0012974    1.1752040  
H    2.1134392    0.0000545    2.0405121  
