46
31A 36B 5A 16A 17B 26B 45 43 13 30 27 29 2 7 7 2 3 4 2 1 3 0 nosym
C    3.3041269    0.0001177   -1.5420434  
C    2.5845370   -0.0004780   -0.3695856  
C    1.2040006   -0.0000007   -0.7283591  
C    1.1422372    0.0006038   -2.1454374  
N    2.4348634    0.0026110   -2.6077469  
C   -0.0655187    0.0008799   -2.8497915  
C   -1.2321772    0.0002326   -2.1101397  
O   -2.4392820    0.0001149   -2.7472517  
C   -1.1911209   -0.0000007   -0.6955263  
O   -2.4371523   -0.0002319   -0.1032858  
C    0.0000000    0.0000000    0.0000000  
H    3.0031535   -0.0000661    0.6222578  
H    2.7054623   -0.0071098   -3.5745264  
H   -0.1193555    0.0014846   -3.9297470  
H   -3.1132995   -0.0000646   -2.0551782  
H   -2.3200286   -0.0004070    0.8516413  
C    6.5771494   -0.0035573    1.3345533  
C    7.6645487   -0.0027623    0.5288600  
C    7.1290976   -0.0009890   -0.8238371  
C    5.6614000   -0.0010505   -0.6437065  
N    5.3318749   -0.0024720    0.6193853  
C    4.7577216    0.0005129   -1.7610467  
C    5.2958115    0.0024560   -3.0019295  
O    4.5716623    0.0040580   -4.1340273  
C    6.7730249    0.0029427   -3.2164075  
O    7.1927148    0.0046216   -4.3735932  
C    7.6790893    0.0012688   -2.0540953  
H    8.7019030   -0.0032210    0.8169074  
H    5.2317432    0.0052551   -4.8505775  
H    8.7426330    0.0018006   -2.2518453  
H    6.5493804   -0.0048794    2.4126071  
C    2.3971438    2.0127888    3.1728260  
C    1.9431056    1.6308205    1.9564670  
C    0.8496017    0.7127664    2.2356185  
C    0.7794028    0.6545384    3.7115134  
N    1.6840587    1.4146091    4.2663826  
C   -0.1885723   -0.1578550    4.3957118  
C   -1.0476298   -0.8789867    3.6398520  
O   -2.0015663   -1.6796266    4.1448486  
C   -1.0022026   -0.8410666    2.1483229  
O   -1.8147390   -1.5232959    1.5241687  
C    0.0000000    0.0000000    1.4700000  
H    2.3054237    1.9346118    0.9892483  
H   -0.2170646   -0.1815267    5.4753125  
H   -2.4487139   -2.0549881    3.3649027  
H    3.2048689    2.6911772    3.3971983  
