46
31A 36B 0B 21B 26A 45 43 15 28 29 2 7 2 7 4 2 1 2 0 nosym
C    3.3003543    0.0005277   -1.4738990  
C    2.5232811    0.0003499   -2.6090749  
C    1.1623199   -0.0001317   -2.1820104  
C    1.1711881    0.0000584   -0.7636144  
N    2.4852300   -0.0014918   -0.3662360  
C    0.0000000    0.0000000    0.0000000  
C   -1.2020384    0.0000520   -0.6806478  
O   -2.3759250    0.0003494    0.0157748  
C   -1.2314658   -0.0005111   -2.0955509  
O   -2.5054391   -0.0008036   -2.6250178  
C   -0.0764518   -0.0007271   -2.8495195  
H    2.8919951   -0.0005617   -3.6205306  
H    2.8036264    0.0088181    0.5858657  
H   -3.0835640    0.0000348   -0.6418817  
H   -2.4360050   -0.0011525   -3.5845919  
H    4.3715549    0.0004896   -1.3667139  
C   -0.1496418   -0.0015610   -4.3176961  
C    0.8605983   -0.0020140   -5.2251594  
C    0.2508219   -0.0027517   -6.5339791  
C   -1.2079384   -0.0026616   -6.3130521  
N   -1.3844308   -0.0023260   -4.9485962  
C   -2.1356006   -0.0028337   -7.3035804  
C   -1.6659561   -0.0033534   -8.6790694  
O   -2.4225838   -0.0036046   -9.6412625  
C   -0.1253102   -0.0037094   -8.9363927  
O    0.2819499   -0.0044543  -10.0902551  
C    0.7762277   -0.0032000   -7.7870096  
H    1.9128690   -0.0020325   -5.0030345  
H   -3.2010534   -0.0026331   -7.1199509  
H    1.8415244   -0.0032456   -7.9737357  
H   -2.2733180   -0.0006338   -4.4828445  
C    2.3971438    2.0127888    3.1728260  
C    1.9431056    1.6308205    1.9564670  
C    0.8496017    0.7127664    2.2356185  
C    0.7794028    0.6545384    3.7115134  
N    1.6840587    1.4146091    4.2663826  
C   -0.1885723   -0.1578550    4.3957118  
C   -1.0476298   -0.8789867    3.6398520  
O   -2.0015663   -1.6796266    4.1448486  
C   -1.0022026   -0.8410666    2.1483229  
O   -1.8147390   -1.5232959    1.5241687  
C    0.0000000    0.0000000    1.4700000  
H    2.3054237    1.9346118    0.9892483  
H   -0.2170646   -0.1815267    5.4753125  
H   -2.4487139   -2.0549881    3.3649027  
H    3.2048689    2.6911772    3.3971983  
