46
31A 32A 41B 16A 20A 21B 45 42 44 29 30 28 2 3 4 2 1 7 3 0 3 0 nosym
C    1.1188644    0.0008216   -0.8003803  
C    0.0000000    0.0000000    0.0000000  
C   -1.1323861    0.0008904   -0.8673527  
C   -0.6382659    0.0019681   -2.1969278  
N    0.7324021    0.0038477   -2.1202237  
C   -1.4770909    0.0027323   -3.3154808  
C   -2.8395470    0.0020956   -3.0876857  
O   -3.7039197    0.0024441   -4.1440352  
C   -3.3517867    0.0013945   -1.7684331  
O   -4.7300488    0.0012387   -1.7073126  
C   -2.5248543    0.0009134   -0.6644818  
H    1.3576318   -0.0056175   -2.9057039  
H   -4.5940027    0.0021847   -3.7685134  
H   -4.9934597    0.0007284   -0.7819917  
H   -2.9462579    0.0005617    0.3339654  
H    2.1619892    0.0009343   -0.5342064  
C    1.8906698   -2.0861113   -5.2626199  
C    0.9779261   -1.6251683   -4.3690286  
C    0.1016436   -0.7294211   -5.0863858  
C    0.5821191   -0.7061492   -6.4811589  
N    1.6688569   -1.5489169   -6.5215724  
C    0.0179719    0.0235397   -7.4766471  
C   -1.1395625    0.8406742   -7.1527018  
O   -1.7182894    1.5334125   -7.9794361  
C   -1.6653053    0.8314589   -5.6818806  
O   -2.6389748    1.5156851   -5.3971656  
C   -0.9736289    0.0040466   -4.6965764  
H    0.9247002   -1.8830614   -3.3263055  
H    0.3859480    0.0263612   -8.4932567  
H    2.7068302   -2.7728818   -5.1073199  
H    2.2153073   -1.7452399   -7.3400444  
C    2.5528530    2.1414826    2.8079335  
C    2.0663498    1.7338582    4.0032312  
C    0.9804344    0.8229586    3.6752840  
C    0.9495562    0.7966882    2.1971295  
N    1.8690446    1.5676019    1.6831036  
C    0.0000000    0.0000000    1.4700000  
C   -0.8785127   -0.7372425    2.1869543  
O   -1.8187535   -1.5261249    1.6395491  
C   -0.8723269   -0.7321790    3.6796354  
O   -1.7010379   -1.4274584    4.2670412  
C    0.1115397    0.0933559    4.4024240  
H    2.4028853    2.0163452    4.9860947  
H   -2.2861435   -1.9184361    2.3990168  
H    0.0832434    0.0693689    5.4835595  
H    3.3664920    2.8238276    2.6198634  
