48
38B 16A 20A 21B 44 32 28 29 7 2 1 7 1 0 3 0 nosym
C    3.3003551    0.0005277   -1.4738980  
C    2.5232820    0.0003498   -2.6090740  
C    1.1623207   -0.0001318   -2.1820099  
C    1.1711887    0.0000584   -0.7636138  
N    2.4852302   -0.0014919   -0.3662352  
C    0.0000000    0.0000000    0.0000000  
C   -1.2020382    0.0000521   -0.6806482  
O   -2.3759248    0.0003494    0.0157741  
C   -1.2314651   -0.0005111   -2.0955511  
O   -2.5054381   -0.0008036   -2.6250184  
C   -0.0764509   -0.0007271   -2.8495194  
H    2.8036266    0.0088182    0.5858670  
H   -3.0835635    0.0000348   -0.6418822  
H   -2.4360036   -0.0011526   -3.5845927  
H   -0.1304085   -0.0013419   -3.9319086  
H    4.3715552    0.0004895   -1.3667123  
C    5.9339404   -2.1239632   -4.5697793  
C    5.0139155   -1.6613190   -3.6576484  
C    4.1430871   -0.7747005   -4.3577670  
C    4.5843193   -0.7357738   -5.7052556  
N    5.6745657   -1.5647287   -5.7991410  
C    3.9561317    0.0394408   -6.6846488  
C    2.8624165    0.7887787   -6.2967606  
O    2.2114293    1.5633305   -7.2128929  
C    2.4073430    0.7634326   -4.9569534  
O    1.3072171    1.5639366   -4.7283488  
C    3.0267445   -0.0008950   -3.9901692  
H    4.9758717   -1.9289913   -2.6155848  
H    6.1946449   -1.7467729   -6.6384019  
H    4.2876092    0.0735629   -7.7133179  
H    1.4889959    1.9966211   -6.7400143  
H    1.0643871    1.4893956   -3.8004041  
H    6.7555166   -2.8075032   -4.4403776  
C    0.8175213    0.6860729    2.3021913  
C    0.0000000    0.0000000    1.4700000  
C   -0.8887526   -0.7456559    2.3478473  
C   -0.4549825   -0.3816753    3.7138435  
N    0.5448156    0.4573574    3.6934124  
C   -1.0945674   -0.9182058    4.8835240  
C   -2.1210866   -1.7789155    4.6970523  
O   -2.8083856   -2.3554314    5.6976972  
C   -2.5824069   -2.1655116    3.3310774  
O   -3.5227682   -2.9541547    3.2362962  
C   -1.9100805   -1.6015804    2.1470656  
H   -0.7567140   -0.6349833    5.8697035  
H   -3.4728268   -2.9124471    5.2533954  
H   -2.2742832   -1.9066565    1.1752040  
H    1.6189533    1.3585343    2.0405121  
