46
31A 36B 10A 17B 26B 45 43 15 27 29 2 7 4 3 4 2 1 2 0 nosym
C    0.0000000    0.0000000    0.0000000  
C    1.0521663   -0.0011902   -0.8862345  
C    0.4917214   -0.0011957   -2.1979134  
C   -0.9187430    0.0003148   -2.0478682  
N   -1.1833173   -0.0009412   -0.7007911  
C   -1.7951704    0.0010350   -3.1372089  
C   -1.2375842    0.0005225   -4.4010423  
O   -2.0474221    0.0015360   -5.4997574  
C    0.1673576   -0.0013567   -4.5711965  
O    0.5673515   -0.0020688   -5.8915554  
C    1.0325766   -0.0023413   -3.4969893  
H    2.0953056   -0.0030649   -0.6200564  
H   -2.0989777    0.0102372   -0.2891822  
H   -1.4634892    0.0006498   -6.2693592  
H    1.5290704   -0.0033153   -5.9180050  
H    2.1042142   -0.0039610   -3.6584459  
C   -3.9676858    0.7292803   -2.0471631  
C   -5.3027885    0.5138130   -2.1702450  
C   -5.4806691   -0.4129643   -3.2630753  
C   -4.1300714   -0.7220055   -3.7701950  
N   -3.2578657    0.0024039   -2.9908504  
C   -3.8704657   -1.5626539   -4.8034520  
C   -4.9964199   -2.2058249   -5.4600292  
O   -4.8664340   -2.9792892   -6.3997938  
C   -6.4355616   -1.8929052   -4.9396860  
O   -7.3913520   -2.4282480   -5.4847851  
C   -6.5888875   -0.9698095   -3.8179740  
H   -6.0749063    0.9540221   -1.5647168  
H   -2.8722053   -1.7757894   -5.1597655  
H   -7.5886461   -0.7586027   -3.4635752  
H   -3.4426191    1.3580890   -1.3465962  
C    3.1301144    0.0010313    3.1728260  
C    2.5367765    0.0002768    1.9564670  
C    1.1089900   -0.0001027    2.2356185  
C    1.0177864    0.0004150    3.7115134  
N    2.1993570    0.0011613    4.2663826  
C   -0.2459220    0.0002880    4.3957118  
C   -1.3675327    0.0000606    3.6398520  
O   -2.6129319   -0.0000866    4.1448486  
C   -1.3083589   -0.0000910    2.1483229  
O   -2.3693264   -0.0004206    1.5241687  
C    0.0000000    0.0000000    1.4700000  
H    3.0096015    0.0001008    0.9892483  
H   -0.2829642    0.0004689    5.4753125  
H   -3.1967446   -0.0002093    3.3649027  
H    4.1849273    0.0015113    3.3971983  
