46
36B 41B 16A 21B 43 45 30 28 7 4 2 7 2 0 2 0 nosym
C    1.1188644    0.0008217   -0.8003807  
C    0.0000000    0.0000000    0.0000000  
C   -1.1323862    0.0008904   -0.8673526  
C   -0.6382660    0.0019682   -2.1969280  
N    0.7324018    0.0038477   -2.1202240  
C   -1.4770912    0.0027325   -3.3154810  
C   -2.8395475    0.0020958   -3.0876858  
O   -3.7039195    0.0024443   -4.1440347  
C   -3.3517868    0.0013946   -1.7684332  
O   -4.7300492    0.0012389   -1.7073123  
C   -2.5248543    0.0009136   -0.6644818  
H   -1.1067568    0.0036993   -4.3313811  
H   -4.5940030    0.0021851   -3.7685130  
H   -4.9934599    0.0007287   -0.7819913  
H   -2.9462578    0.0005617    0.3339655  
H    2.1619894    0.0009344   -0.5342067  
C    4.5841843   -2.0202134   -3.0853093  
C    3.4713856   -1.6303084   -2.4210558  
C    2.7894958   -0.7233888   -3.3315629  
C    3.6536737   -0.6796207   -4.5306725  
N    4.7071650   -1.4378880   -4.3921940  
C    3.3222604    0.1187957   -5.6786201  
C    2.1792855    0.8403732   -5.6309817  
O    1.7472604    1.6288346   -6.6298434  
C    1.2859860    0.8168679   -4.4353130  
O    0.2614365    1.4986633   -4.4612743  
C    1.6478436   -0.0100108   -3.2702998  
H    3.1525859   -1.9221639   -1.4350220  
H    3.9722841    0.1320677   -6.5412915  
H    0.9116300    2.0080724   -6.3026524  
H    5.3560047   -2.6944362   -2.7496153  
C    0.0000000    0.0000000    1.4700000  
C    1.0662921    0.0000102    2.3034270  
C    0.4961870   -0.0000064    3.6418889  
C   -0.9663858    0.0000850    3.4240247  
N   -1.2632773    0.0000084    2.1528658  
C   -1.8985362    0.0000517    4.5177257  
C   -1.3925775   -0.0004564    5.7720543  
O   -2.1456383   -0.0005410    6.8851312  
C    0.0786232   -0.0009323    6.0245000  
O    0.4683759   -0.0012588    7.1921102  
C    1.0143166   -0.0008442    4.8859032  
H    2.1107198   -0.0000632    2.0421868  
H   -2.9622183    0.0003270    4.3293377  
H   -1.5042274   -0.0009692    7.6184419  
H    2.0724152   -0.0013148    5.1109744  
