44
34B 15A 24B 40 25 27 7 3 4 1 0 2 0 nosym
C    1.1319247    0.0015655   -0.8009268  
C    0.7969912    0.0034942   -2.1169401  
C   -0.6453342    0.0035709   -2.1842667  
C   -1.1266836    0.0015433   -0.7896023  
N    0.0000000    0.0000000    0.0000000  
C   -2.4346131    0.0013964   -0.4276290  
C   -3.4350113    0.0031409   -1.4820177  
O   -4.6384612    0.0030974   -1.2583907  
C   -2.9478964    0.0050505   -2.9661068  
O   -3.7809385    0.0062217   -3.8623768  
C   -1.5113830    0.0053089   -3.2312121  
H   -2.7664564    0.0000233    0.6013452  
H   -1.1823538    0.0068406   -4.2614846  
H    2.1104315    0.0009390   -0.3488059  
C    2.9134274   -0.7205011   -3.3148106  
C    3.5548220   -0.5025060   -4.4917414  
C    2.7453648    0.4244942   -5.2469136  
C    1.5714088    0.7309114   -4.4074341  
N    1.7334690    0.0049245   -3.2500365  
C    0.5677766    1.5709563   -4.7662535  
C    0.6491326    2.2162008   -6.0660908  
O   -0.2045677    2.9893182   -6.4805607  
C    1.8834065    1.9060749   -6.9717368  
O    1.9626522    2.4431791   -8.0683225  
C    2.9013738    0.9833898   -6.4755042  
H    4.4883488   -0.9411815   -4.7962164  
H   -0.2845341    1.7821542   -4.1354828  
H    3.7529269    0.7741232   -7.1085831  
H    3.2033677   -1.3502350   -2.4894261  
C    0.8175213    0.6860729    2.3021913  
C    0.0000000    0.0000000    1.4700000  
C   -0.8887526   -0.7456559    2.3478473  
C   -0.4549825   -0.3816753    3.7138435  
N    0.5448156    0.4573574    3.6934124  
C   -1.0945674   -0.9182058    4.8835240  
C   -2.1210866   -1.7789155    4.6970523  
O   -2.8083856   -2.3554314    5.6976972  
C   -2.5824069   -2.1655116    3.3310774  
O   -3.5227682   -2.9541547    3.2362962  
C   -1.9100805   -1.6015804    2.1470656  
H   -0.7567140   -0.6349833    5.8697035  
H   -3.4728268   -2.9124471    5.2533954  
H   -2.2742832   -1.9066565    1.1752040  
H    1.6189533    1.3585343    2.0405121  
