46
31A 36B 10B 21B 26B 45 43 15 28 30 2 7 4 7 4 2 1 2 0 nosym
C    3.3003548    0.0005276   -1.4738982  
C    2.5232817    0.0003497   -2.6090743  
C    1.1623206   -0.0001319   -2.1820098  
C    1.1711888    0.0000583   -0.7636138  
N    2.4852302   -0.0014919   -0.3662355  
C    0.0000000    0.0000000    0.0000000  
C   -1.2020381    0.0000520   -0.6806479  
O   -2.3759246    0.0003495    0.0157742  
C   -1.2314650   -0.0005112   -2.0955510  
O   -2.5054382   -0.0008036   -2.6250182  
C   -0.0764510   -0.0007271   -2.8495193  
H    2.8919962   -0.0005619   -3.6205297  
H    2.8036267    0.0088181    0.5858667  
H   -3.0835639    0.0000348   -0.6418822  
H   -2.4360046   -0.0011526   -3.5845924  
H   -0.1304090   -0.0013420   -3.9319086  
C    4.7630507    0.0004755   -1.3275395  
C    5.6985005    0.0014503   -2.3055538  
C    6.9735500    0.0008548   -1.6050195  
C    6.6111489   -0.0004096   -0.1714060  
N    5.3167472   -0.0007180   -0.0025511  
C    7.6066075   -0.0013507    0.8650053  
C    8.9050788   -0.0014315    0.4864460  
O    9.9376478   -0.0022576    1.3465866  
C    9.3027479   -0.0005447   -0.9523100  
O   10.5033617   -0.0005492   -1.2238747  
C    8.2629700    0.0004560   -1.9967165  
H    5.5425452    0.0023599   -3.3708018  
H    7.3132515   -0.0020604    1.9046453  
H   10.7311761   -0.0021138    0.7813738  
H    8.5922708    0.0009639   -3.0271487  
C    2.3971438    2.0127888    3.1728260  
C    1.9431056    1.6308205    1.9564670  
C    0.8496017    0.7127664    2.2356185  
C    0.7794028    0.6545384    3.7115134  
N    1.6840587    1.4146091    4.2663826  
C   -0.1885723   -0.1578550    4.3957118  
C   -1.0476298   -0.8789867    3.6398520  
O   -2.0015663   -1.6796266    4.1448486  
C   -1.0022026   -0.8410666    2.1483229  
O   -1.8147390   -1.5232959    1.5241687  
C    0.0000000    0.0000000    1.4700000  
H    2.3054237    1.9346118    0.9892483  
H   -0.2170646   -0.1815267    5.4753125  
H   -2.4487139   -2.0549881    3.3649027  
H    3.2048689    2.6911772    3.3971983  
