44
29A 30A 39B 14A 15A 24B 43 40 42 27 25 26 2 3 4 2 3 4 3 0 3 0 nosym
C    1.0965514    0.0001358   -0.8010308  
C    0.0000000    0.0000000    0.0000000  
C   -1.1546563    0.0001470   -0.8669511  
C   -0.6372017    0.0003520   -2.2486280  
N    0.7342868    0.0007338   -2.1395013  
C   -1.4147744    0.0001354   -3.3608714  
C   -2.8576054   -0.0001047   -3.1854457  
O   -3.6427786   -0.0002491   -4.1244901  
C   -3.4275843   -0.0000725   -1.7311661  
O   -4.6406831    0.0000333   -1.5710051  
C   -2.4891867   -0.0001090   -0.6116740  
H   -2.8919119   -0.0002919    0.3920869  
H    2.1388271    0.0000662   -0.5261651  
H    1.3735867   -0.0006098   -2.9130264  
C    1.9999911   -2.1070888   -5.1447770  
C    1.9105658   -1.6426495   -6.4177161  
C    0.7784244   -0.7475272   -6.4606981  
C    0.2115574   -0.7283875   -5.0986827  
N    0.9973781   -1.5733444   -4.3494010  
C   -0.8712833    0.0001712   -4.7267109  
C   -1.5219804    0.8200165   -5.7351662  
O   -2.5037644    1.5119154   -5.4992068  
C   -0.9387708    0.8148046   -7.1841815  
O   -1.4783601    1.5008670   -8.0417494  
C    0.2330290   -0.0112900   -7.4640107  
H    2.5631026   -1.8981142   -7.2335267  
H    0.6307982   -0.0091669   -8.4697439  
H    2.7138538   -2.7945382   -4.7208626  
H    0.8643839   -1.7702169   -3.3744133  
C    2.5528530    2.1414826    2.8079335  
C    2.0663498    1.7338582    4.0032312  
C    0.9804344    0.8229586    3.6752840  
C    0.9495562    0.7966882    2.1971295  
N    1.8690446    1.5676019    1.6831036  
C    0.0000000    0.0000000    1.4700000  
C   -0.8785127   -0.7372425    2.1869543  
O   -1.8187535   -1.5261249    1.6395491  
C   -0.8723269   -0.7321790    3.6796354  
O   -1.7010379   -1.4274584    4.2670412  
C    0.1115397    0.0933559    4.4024240  
H    2.4028853    2.0163452    4.9860947  
H   -2.2861435   -1.9184361    2.3990168  
H    0.0832434    0.0693689    5.4835595  
H    3.3664920    2.8238276    2.6198634  
