46
31A 32A 41B 5A 16B 21B 45 42 44 13 30 28 2 3 4 7 2 7 3 1 2 0 nosym
C    3.3041269    0.0001177   -1.5420434  
C    2.5845370   -0.0004780   -0.3695856  
C    1.2040006   -0.0000007   -0.7283591  
C    1.1422372    0.0006038   -2.1454374  
N    2.4348634    0.0026110   -2.6077469  
C   -0.0655187    0.0008799   -2.8497915  
C   -1.2321772    0.0002326   -2.1101397  
O   -2.4392820    0.0001149   -2.7472517  
C   -1.1911209   -0.0000007   -0.6955263  
O   -2.4371523   -0.0002319   -0.1032858  
C    0.0000000    0.0000000    0.0000000  
H    3.0031535   -0.0000661    0.6222578  
H    2.7054623   -0.0071098   -3.5745264  
H   -0.1193555    0.0014846   -3.9297470  
H   -3.1132995   -0.0000646   -2.0551782  
H   -2.3200286   -0.0004070    0.8516413  
C    6.9078746   -0.0012405    1.0804445  
C    5.6166934   -0.0005894    0.6749443  
C    5.6800155    0.0004033   -0.7784963  
C    7.1258512    0.0003167   -1.0885639  
N    7.8505608   -0.0007258   -0.0028454  
C    7.6141446    0.0011041   -2.4401022  
C    6.6996200    0.0015510   -3.4365861  
O    7.0134395    0.0023034   -4.7433217  
C    5.2335524    0.0012794   -3.1558619  
O    4.4582990    0.0018411   -4.1120008  
C    4.7577216    0.0005129   -1.7610467  
H    4.7307116   -0.0008517    1.2865905  
H    8.6761779    0.0012273   -2.6375719  
H    6.1552198    0.0024365   -5.2044213  
H    7.2868906   -0.0020579    2.0900581  
C    2.5528530    2.1414826    2.8079335  
C    2.0663498    1.7338582    4.0032312  
C    0.9804344    0.8229586    3.6752840  
C    0.9495562    0.7966882    2.1971295  
N    1.8690446    1.5676019    1.6831036  
C    0.0000000    0.0000000    1.4700000  
C   -0.8785127   -0.7372425    2.1869543  
O   -1.8187535   -1.5261249    1.6395491  
C   -0.8723269   -0.7321790    3.6796354  
O   -1.7010379   -1.4274584    4.2670412  
C    0.1115397    0.0933559    4.4024240  
H    2.4028853    2.0163452    4.9860947  
H   -2.2861435   -1.9184361    2.3990168  
H    0.0832434    0.0693689    5.4835595  
H    3.3664920    2.8238276    2.6198634  
