44
5B 10B 34B 39B 12 14 41 43 7 4 7 4 2 0 2 0 nosym
C    3.2973510   -0.0000932   -3.8752371  
C    4.6109364    0.0004820   -4.2009257  
C    4.6367196    0.0000584   -5.6555163  
C    3.2125798   -0.0009019   -6.0535226  
N    2.4227573   -0.0009142   -5.0142107  
C    2.8079504   -0.0015103   -7.4324209  
C    3.7817672   -0.0007856   -8.3710437  
O    3.5485416   -0.0012358   -9.6945417  
C    5.2278974    0.0005619   -8.0010883  
O    6.0602357    0.0010409   -8.9079695  
C    5.6174385    0.0011208   -6.5797565  
H    5.4578083    0.0012056   -3.5361829  
H    1.7599996   -0.0024153   -7.6945427  
H    4.4333810   -0.0004720  -10.1022322  
H    6.6752628    0.0022152   -6.3534026  
C    3.3321177    0.0004715   -1.3379328  
C    2.6974188    0.0000116   -2.5332306  
C    1.2800443   -0.0002119   -2.2052837  
C    1.2395037    0.0000643   -0.7271292  
N    2.4394063    0.0005459   -0.2131032  
C    0.0000000    0.0000000    0.0000000  
C   -1.1468699    0.0000634   -0.7169542  
O   -2.3742202    0.0000072   -0.1695494  
C   -1.1388764    0.0001607   -2.2096355  
O   -2.2206225    0.0000904   -2.7970414  
C    0.1454529    0.0001815   -2.9324239  
H   -2.9844343    0.0001025   -0.9290170  
H    0.1083582    0.0003681   -4.0135594  
H    4.3940041    0.0007619   -1.1498627  
C    0.0000000    0.0000000    1.4700000  
C    1.0662921    0.0000102    2.3034270  
C    0.4961870   -0.0000064    3.6418889  
C   -0.9663858    0.0000850    3.4240247  
N   -1.2632773    0.0000084    2.1528658  
C   -1.8985362    0.0000517    4.5177257  
C   -1.3925775   -0.0004564    5.7720543  
O   -2.1456383   -0.0005410    6.8851312  
C    0.0786232   -0.0009323    6.0245000  
O    0.4683759   -0.0012588    7.1921102  
C    1.0143166   -0.0008442    4.8859032  
H    2.1107198   -0.0000632    2.0421868  
H   -2.9622183    0.0003270    4.3293377  
H   -1.5042274   -0.0009692    7.6184419  
H    2.0724152   -0.0013148    5.1109744  
