48
38B 20A 21B 44 27 28 7 1 7 1 0 2 0 nosym
C    3.3003551    0.0005277   -1.4738980  
C    2.5232820    0.0003498   -2.6090740  
C    1.1623207   -0.0001318   -2.1820099  
C    1.1711887    0.0000584   -0.7636138  
N    2.4852302   -0.0014919   -0.3662352  
C    0.0000000    0.0000000    0.0000000  
C   -1.2020382    0.0000521   -0.6806482  
O   -2.3759248    0.0003494    0.0157741  
C   -1.2314651   -0.0005111   -2.0955511  
O   -2.5054381   -0.0008036   -2.6250184  
C   -0.0764509   -0.0007271   -2.8495194  
H    2.8036266    0.0088182    0.5858670  
H   -3.0835635    0.0000348   -0.6418822  
H   -2.4360036   -0.0011526   -3.5845927  
H   -0.1304085   -0.0013419   -3.9319086  
H    4.3715552    0.0004895   -1.3667123  
C    4.1072314   -0.7191022   -4.4475461  
C    3.0267445   -0.0008950   -3.9901692  
C    2.5087358    0.7258922   -5.1028452  
C    3.3206466    0.4084346   -6.2217497  
N    4.2827403   -0.4698426   -5.7885961  
C    3.1000343    0.9464858   -7.4932132  
C    2.0403166    1.8207030   -7.6378507  
O    1.7797484    2.3748860   -8.8576862  
C    1.2191177    2.1500709   -6.5333295  
O    0.2053896    3.0346615   -6.8386142  
C    1.4363359    1.6198578   -5.2786514  
H    4.9963753   -0.8790787   -6.3641233  
H    3.7152901    0.7086624   -8.3500112  
H    1.0098924    2.9463182   -8.7391484  
H   -0.3015553    3.2041277   -6.0386820  
H    0.7906459    1.8909176   -4.4515545  
H    4.7674535   -1.3883358   -3.9229583  
C    0.8175213    0.6860729    2.3021913  
C    0.0000000    0.0000000    1.4700000  
C   -0.8887526   -0.7456559    2.3478473  
C   -0.4549825   -0.3816753    3.7138435  
N    0.5448156    0.4573574    3.6934124  
C   -1.0945674   -0.9182058    4.8835240  
C   -2.1210866   -1.7789155    4.6970523  
O   -2.8083856   -2.3554314    5.6976972  
C   -2.5824069   -2.1655116    3.3310774  
O   -3.5227682   -2.9541547    3.2362962  
C   -1.9100805   -1.6015804    2.1470656  
H   -0.7567140   -0.6349833    5.8697035  
H   -3.4728268   -2.9124471    5.2533954  
H   -2.2742832   -1.9066565    1.1752040  
H    1.6189533    1.3585343    2.0405121  
