46
31A 32A 41B 20A 21B 45 42 44 30 27 2 3 4 1 7 3 0 2 0 nosym
C    3.3003551    0.0005277   -1.4738980  
C    2.5232820    0.0003498   -2.6090740  
C    1.1623207   -0.0001318   -2.1820099  
C    1.1711887    0.0000584   -0.7636138  
N    2.4852302   -0.0014919   -0.3662352  
C    0.0000000    0.0000000    0.0000000  
C   -1.2020382    0.0000521   -0.6806482  
O   -2.3759248    0.0003494    0.0157741  
C   -1.2314651   -0.0005111   -2.0955511  
O   -2.5054381   -0.0008036   -2.6250184  
C   -0.0764509   -0.0007271   -2.8495194  
H    2.8036266    0.0088182    0.5858670  
H   -3.0835635    0.0000348   -0.6418822  
H   -2.4360036   -0.0011526   -3.5845927  
H   -0.1304085   -0.0013419   -3.9319086  
H    4.3715552    0.0004895   -1.3667123  
C    4.0912591   -0.7049384   -4.4540732  
C    3.0267445   -0.0008950   -3.9901692  
C    2.4918045    0.7392288   -5.1086020  
C    3.3379767    0.4062539   -6.2704584  
N    4.2890158   -0.4732102   -5.8068235  
C    3.1585242    0.9039809   -7.5201661  
C    2.0587102    1.8295629   -7.7352068  
O    1.8145052    2.3323678   -8.8241749  
C    1.1499701    2.1964770   -6.5189126  
O    0.2211192    2.9749317   -6.6877457  
C    1.4426652    1.5953882   -5.2201159  
H    3.7906033    0.6467128   -8.3587356  
H    0.8086037    1.8544578   -4.3831132  
H    4.7480574   -1.3734088   -3.9214824  
H    5.0137596   -0.8850252   -6.3655743  
C    2.5528530    2.1414826    2.8079335  
C    2.0663498    1.7338582    4.0032312  
C    0.9804344    0.8229586    3.6752840  
C    0.9495562    0.7966882    2.1971295  
N    1.8690446    1.5676019    1.6831036  
C    0.0000000    0.0000000    1.4700000  
C   -0.8785127   -0.7372425    2.1869543  
O   -1.8187535   -1.5261249    1.6395491  
C   -0.8723269   -0.7321790    3.6796354  
O   -1.7010379   -1.4274584    4.2670412  
C    0.1115397    0.0933559    4.4024240  
H    2.4028853    2.0163452    4.9860947  
H   -2.2861435   -1.9184361    2.3990168  
H    0.0832434    0.0693689    5.4835595  
H    3.3664920    2.8238276    2.6198634  
