44
34B 14A 15A 24B 40 27 25 26 7 2 3 4 1 0 3 0 nosym
C    1.1319247    0.0015655   -0.8009268  
C    0.7969912    0.0034942   -2.1169401  
C   -0.6453342    0.0035709   -2.1842667  
C   -1.1266836    0.0015433   -0.7896023  
N    0.0000000    0.0000000    0.0000000  
C   -2.4346131    0.0013964   -0.4276290  
C   -3.4350113    0.0031409   -1.4820177  
O   -4.6384612    0.0030974   -1.2583907  
C   -2.9478964    0.0050505   -2.9661068  
O   -3.7809385    0.0062217   -3.8623768  
C   -1.5113830    0.0053089   -3.2312121  
H   -2.7664564    0.0000233    0.6013452  
H   -1.1823538    0.0068406   -4.2614846  
H    2.1104315    0.0009390   -0.3488059  
C    4.5953887   -2.1015058   -2.7684683  
C    4.9007833   -1.6358555   -4.0070072  
C    3.8360903   -0.7408605   -4.3946267  
C    2.8785304   -0.7231151   -3.2723279  
N    3.3968106   -1.5686756   -2.3187544  
C    1.7334690    0.0049245   -3.2500365  
C    1.4233495    0.8256427   -4.4088214  
O    0.4162293    1.5171684   -4.4849912  
C    2.4231602    0.8219113   -5.6088925  
O    2.1725320    1.5087180   -6.5900870  
C    3.6246483   -0.0037397   -5.5162699  
H    5.7723331   -1.8904385   -4.5833768  
H    4.3119089   -0.0005901   -6.3513669  
H    5.1449813   -2.7892565   -2.1465062  
H    2.9710668   -1.7665056   -1.4318202  
C    0.8175213    0.6860729    2.3021913  
C    0.0000000    0.0000000    1.4700000  
C   -0.8887526   -0.7456559    2.3478473  
C   -0.4549825   -0.3816753    3.7138435  
N    0.5448156    0.4573574    3.6934124  
C   -1.0945674   -0.9182058    4.8835240  
C   -2.1210866   -1.7789155    4.6970523  
O   -2.8083856   -2.3554314    5.6976972  
C   -2.5824069   -2.1655116    3.3310774  
O   -3.5227682   -2.9541547    3.2362962  
C   -1.9100805   -1.6015804    2.1470656  
H   -0.7567140   -0.6349833    5.8697035  
H   -3.4728268   -2.9124471    5.2533954  
H   -2.2742832   -1.9066565    1.1752040  
H    1.6189533    1.3585343    2.0405121  
