44
34B 39B 19B 24B 41 43 26 28 7 4 7 4 2 0 2 0 nosym
C    3.2798086    0.0005858   -1.4499646  
C    2.5571145    0.0005567   -2.5996553  
C    1.1637436    0.0001549   -2.2210360  
C    1.1336963   -0.0000199   -0.7459471  
N    2.4483514   -0.0001427   -0.3402720  
C    0.0000000    0.0000000    0.0000000  
C   -1.2757367   -0.0000186   -0.6964417  
O   -2.3524597   -0.0000640   -0.1142315  
C   -1.2676494   -0.0000872   -2.2584082  
O   -2.3355761   -0.0004100   -2.8557297  
C    0.0181560    0.0001762   -2.9516297  
H    0.0150792    0.0003321   -4.0331631  
H    4.3498549    0.0008613   -1.3200019  
H    2.7563626    0.0012824    0.6148062  
C    3.1006058    0.0006265   -3.9654949  
C    4.3994784    0.0018089   -4.3456356  
C    4.3646285    0.0012726   -5.8000376  
C    2.9251419   -0.0004106   -6.1383557  
N    2.1793123   -0.0007154   -5.0670354  
C    2.4634069   -0.0013332   -7.4991959  
C    3.3972664   -0.0002185   -8.4775818  
O    3.1090950   -0.0008953   -9.7902120  
C    4.8575550    0.0018602   -8.1682056  
O    5.6513813    0.0026636   -9.1089819  
C    5.3059830    0.0027298   -6.7643411  
H    5.2733139    0.0029992   -3.7167588  
H    1.4054445   -0.0027676   -7.7174230  
H    3.9761773    0.0002613  -10.2344188  
H    6.3723199    0.0043552   -6.5822622  
C    0.0000000    0.0000000    1.4700000  
C    1.0662921    0.0000102    2.3034270  
C    0.4961870   -0.0000064    3.6418889  
C   -0.9663858    0.0000850    3.4240247  
N   -1.2632773    0.0000084    2.1528658  
C   -1.8985362    0.0000517    4.5177257  
C   -1.3925775   -0.0004564    5.7720543  
O   -2.1456383   -0.0005410    6.8851312  
C    0.0786232   -0.0009323    6.0245000  
O    0.4683759   -0.0012588    7.1921102  
C    1.0143166   -0.0008442    4.8859032  
H    2.1107198   -0.0000632    2.0421868  
H   -2.9622183    0.0003270    4.3293377  
H   -1.5042274   -0.0009692    7.6184419  
H    2.0724152   -0.0013148    5.1109744  
