44
34B 5A 14A 15B 24B 40 12 28 25 27 7 7 2 3 4 1 1 3 0 nosym
C    3.1301149   -0.0010311   -1.7028252  
C    2.5367766   -0.0002767   -0.4864665  
C    1.1089904    0.0001028   -0.7656183  
C    1.0177870   -0.0004148   -2.2415132  
N    2.1993578   -0.0011611   -2.7963820  
C   -0.2459213   -0.0002877   -2.9257118  
C   -1.3675317   -0.0000605   -2.1698525  
O   -2.6129311    0.0000867   -2.6748493  
C   -1.3083587    0.0000910   -0.6783232  
O   -2.3693264    0.0004206   -0.0541692  
C    0.0000000    0.0000000    0.0000000  
H    3.0096016   -0.0001007    0.4807523  
H   -0.2829632   -0.0004687   -4.0053124  
H   -3.1967439    0.0002094   -1.8949037  
C    6.5698745   -0.0006427    0.9721610  
C    7.6069601   -0.0018568    0.1026609  
C    6.9912940   -0.0024305   -1.2154645  
C    5.5370519   -0.0015106   -0.9475763  
N    5.2839240   -0.0003802    0.3330154  
C    4.5679461   -0.0016854   -2.0086701  
C    5.0305955   -0.0023424   -3.2796106  
O    4.2398095   -0.0025847   -4.3662099  
C    6.4922744   -0.0029068   -3.5823562  
O    6.8417597   -0.0036171   -4.7626441  
C    7.4664605   -0.0027579   -2.4765143  
H    8.6597314   -0.0022171    0.3279336  
H    4.8556979   -0.0030410   -5.1210837  
H    8.5162193   -0.0030654   -2.7377360  
H    6.6068538    0.0001031    2.0499390  
C    0.8175213    0.6860729    2.3021913  
C    0.0000000    0.0000000    1.4700000  
C   -0.8887526   -0.7456559    2.3478473  
C   -0.4549825   -0.3816753    3.7138435  
N    0.5448156    0.4573574    3.6934124  
C   -1.0945674   -0.9182058    4.8835240  
C   -2.1210866   -1.7789155    4.6970523  
O   -2.8083856   -2.3554314    5.6976972  
C   -2.5824069   -2.1655116    3.3310774  
O   -3.5227682   -2.9541547    3.2362962  
C   -1.9100805   -1.6015804    2.1470656  
H   -0.7567140   -0.6349833    5.8697035  
H   -3.4728268   -2.9124471    5.2533954  
H   -2.2742832   -1.9066565    1.1752040  
H    1.6189533    1.3585343    2.0405121  
