46
36B 10A 16B 21B 42 15 30 28 7 4 2 7 1 1 2 0 nosym
C    3.3003548    0.0005276   -1.4738982  
C    2.5232817    0.0003497   -2.6090743  
C    1.1623206   -0.0001319   -2.1820098  
C    1.1711888    0.0000583   -0.7636138  
N    2.4852302   -0.0014919   -0.3662355  
C    0.0000000    0.0000000    0.0000000  
C   -1.2020381    0.0000520   -0.6806479  
O   -2.3759246    0.0003495    0.0157742  
C   -1.2314650   -0.0005112   -2.0955510  
O   -2.5054382   -0.0008036   -2.6250182  
C   -0.0764510   -0.0007271   -2.8495193  
H    2.8919962   -0.0005619   -3.6205297  
H    2.8036267    0.0088181    0.5858667  
H   -3.0835639    0.0000348   -0.6418822  
H   -2.4360046   -0.0011526   -3.5845924  
H   -0.1304090   -0.0013420   -3.9319086  
C    6.7690615    0.0009404   -4.2725612  
C    5.4996713    0.0003249   -3.8032769  
C    5.6352800    0.0001664   -2.3547916  
C    7.0947609    0.0006466   -2.1170955  
N    7.7645151    0.0011823   -3.2375503  
C    7.6497401    0.0006997   -0.7915448  
C    6.7859647    0.0006804    0.2492366  
O    7.1644552    0.0007167    1.5387271  
C    5.3077380    0.0005720    0.0418547  
O    4.5810513    0.0004361    1.0354074  
C    4.7630507    0.0004755   -1.3275395  
H    4.5843346    0.0001068   -4.3700524  
H    8.7202890    0.0008484   -0.6471976  
H    6.3302582    0.0007160    2.0419847  
H    7.0973402    0.0012420   -5.2997942  
C    0.8175213    0.6860729    2.3021913  
C    0.0000000    0.0000000    1.4700000  
C   -0.8887526   -0.7456559    2.3478473  
C   -0.4549825   -0.3816753    3.7138435  
N    0.5448156    0.4573574    3.6934124  
C   -1.0945674   -0.9182058    4.8835240  
C   -2.1210866   -1.7789155    4.6970523  
O   -2.8083856   -2.3554314    5.6976972  
C   -2.5824069   -2.1655116    3.3310774  
O   -3.5227682   -2.9541547    3.2362962  
C   -1.9100805   -1.6015804    2.1470656  
H   -0.7567140   -0.6349833    5.8697035  
H   -3.4728268   -2.9124471    5.2533954  
H   -2.2742832   -1.9066565    1.1752040  
H    1.6189533    1.3585343    2.0405121  
