44
34B 39B 0A 14A 15B 24A 41 43 12 28 25 27 7 4 2 2 3 4 2 1 3 0 nosym
C    3.2798084    0.0005856   -1.4499649  
C    2.5571145    0.0005564   -2.5996554  
C    1.1637435    0.0001547   -2.2210363  
C    1.1336965   -0.0000200   -0.7459473  
N    2.4483513   -0.0001428   -0.3402723  
C    0.0000000    0.0000000    0.0000000  
C   -1.2757369   -0.0000187   -0.6964416  
O   -2.3524596   -0.0000640   -0.1142313  
C   -1.2676495   -0.0000874   -2.2584083  
O   -2.3355762   -0.0004102   -2.8557296  
C    0.0181561    0.0001758   -2.9516298  
H    2.9547353    0.0006073   -3.5989108  
H    4.3498552    0.0008611   -1.3200024  
H    2.7563627    0.0012824    0.6148060  
C    2.5654234   -2.1380211   -5.7671297  
C    2.0750620   -1.7307734   -6.9609785  
C    0.9890578   -0.8211466   -6.6298092  
C    0.9623553   -0.7951241   -5.1515693  
N    1.8841711   -1.5650742   -4.6402746  
C    0.0139739    0.0003876   -4.4216236  
C   -0.8674057    0.7367420   -5.1359671  
O   -1.8069742    1.5244845   -4.5857736  
C   -0.8654609    0.7319006   -6.6286609  
O   -1.6966231    1.4263295   -7.2136043  
C    0.1172757   -0.0924197   -7.3543669  
H    2.4091182   -2.0127391   -7.9448369  
H   -2.2769652    1.9163776   -5.3438506  
H    0.0858767   -0.0683088   -8.4354137  
H    3.3803629   -2.8194749   -5.5814758  
C    0.0000000    0.0000000    1.4700000  
C    1.0662921    0.0000102    2.3034270  
C    0.4961870   -0.0000064    3.6418889  
C   -0.9663858    0.0000850    3.4240247  
N   -1.2632773    0.0000084    2.1528658  
C   -1.8985362    0.0000517    4.5177257  
C   -1.3925775   -0.0004564    5.7720543  
O   -2.1456383   -0.0005410    6.8851312  
C    0.0786232   -0.0009323    6.0245000  
O    0.4683759   -0.0012588    7.1921102  
C    1.0143166   -0.0008442    4.8859032  
H    2.1107198   -0.0000632    2.0421868  
H   -2.9622183    0.0003270    4.3293377  
H   -1.5042274   -0.0009692    7.6184419  
H    2.0724152   -0.0013148    5.1109744  
