44
29A 34B 14A 15A 24B 43 41 27 25 26 2 7 2 3 4 2 0 3 0 nosym
C    1.0965514    0.0001359   -0.8010305  
C    0.0000000    0.0000000    0.0000000  
C   -1.1546565    0.0001470   -0.8669508  
C   -0.6372019    0.0003521   -2.2486278  
N    0.7342868    0.0007339   -2.1395011  
C   -1.4147745    0.0001355   -3.3608712  
C   -2.8576054   -0.0001045   -3.1854454  
O   -3.6427786   -0.0002490   -4.1244897  
C   -3.4275844   -0.0000724   -1.7311659  
O   -4.6406828    0.0000334   -1.5710047  
C   -2.4891866   -0.0001090   -0.6116741  
H   -1.0150455    0.0001619   -4.3654242  
H   -2.8919121   -0.0002919    0.3920869  
H    2.1388271    0.0000663   -0.5261648  
C    4.5298619   -2.1105786   -2.7870405  
C    4.8358775   -1.6476825   -4.0264584  
C    3.7723829   -0.7519984   -4.4157721  
C    2.8148495   -0.7308469   -3.2935098  
N    3.3319989   -1.5752939   -2.3383370  
C    1.6707637   -0.0012341   -3.2725974  
C    1.3617412    0.8177037   -4.4329340  
O    0.3555476    1.5104316   -4.5104134  
C    2.3615441    0.8103623   -5.6329950  
O    2.1118338    1.4956455   -6.6154880  
C    3.5619260   -0.0167196   -5.5388088  
H    5.7070847   -1.9045225   -4.6023443  
H    4.2491888   -0.0160707   -6.3739097  
H    5.0785343   -2.7978860   -2.1637773  
H    2.9059921   -1.7708747   -1.4510303  
C    2.3971438    2.0127888    3.1728260  
C    1.9431056    1.6308205    1.9564670  
C    0.8496017    0.7127664    2.2356185  
C    0.7794028    0.6545384    3.7115134  
N    1.6840587    1.4146091    4.2663826  
C   -0.1885723   -0.1578550    4.3957118  
C   -1.0476298   -0.8789867    3.6398520  
O   -2.0015663   -1.6796266    4.1448486  
C   -1.0022026   -0.8410666    2.1483229  
O   -1.8147390   -1.5232959    1.5241687  
C    0.0000000    0.0000000    1.4700000  
H    2.3054237    1.9346118    0.9892483  
H   -0.2170646   -0.1815267    5.4753125  
H   -2.4487139   -2.0549881    3.3649027  
H    3.2048689    2.6911772    3.3971983  
