44
34B 5A 14A 15B 24B 40 12 27 25 26 7 7 2 3 4 1 1 3 0 nosym
C    3.2573672   -0.0002920   -1.5109379  
C    2.5379469   -0.0001709   -0.3591960  
C    1.1435044    0.0000331   -0.7338498  
C    1.1092608   -0.0000083   -2.2088475  
N    2.4227563    0.0001909   -2.6182608  
C   -0.0265531   -0.0002524   -2.9515661  
C   -1.3003038   -0.0002640   -2.2514979  
O   -2.3786783   -0.0004133   -2.8306426  
C   -1.2877724    0.0000311   -0.6895607  
O   -2.3539956    0.0003306   -0.0892035  
C    0.0000000    0.0000000    0.0000000  
H    2.9384089   -0.0000367    0.6389238  
H   -0.0296289   -0.0004086   -4.0327230  
H    2.7280494   -0.0013407   -3.5742114  
C    6.5597222   -0.0008209    1.3835032  
C    7.6114515   -0.0009112    0.5244683  
C    7.0637936   -0.0009870   -0.8115355  
C    5.5962697   -0.0009037   -0.6593374  
N    5.3559140   -0.0012036    0.6953281  
C    4.7161333   -0.0005435   -1.6923255  
C    5.2498359   -0.0004421   -3.0442489  
O    4.5392151   -0.0001860   -4.0409029  
C    6.8008639   -0.0007796   -3.2289589  
O    7.2618460   -0.0010043   -4.3624297  
C    7.6474467   -0.0008760   -2.0385182  
H    8.6521339   -0.0011058    0.7957498  
H    8.7203352   -0.0009046   -2.1750251  
H    6.5627887   -0.0007238    2.4614087  
H    4.4461414    0.0003273    1.1188356  
C    0.8175213    0.6860729    2.3021913  
C    0.0000000    0.0000000    1.4700000  
C   -0.8887526   -0.7456559    2.3478473  
C   -0.4549825   -0.3816753    3.7138435  
N    0.5448156    0.4573574    3.6934124  
C   -1.0945674   -0.9182058    4.8835240  
C   -2.1210866   -1.7789155    4.6970523  
O   -2.8083856   -2.3554314    5.6976972  
C   -2.5824069   -2.1655116    3.3310774  
O   -3.5227682   -2.9541547    3.2362962  
C   -1.9100805   -1.6015804    2.1470656  
H   -0.7567140   -0.6349833    5.8697035  
H   -3.4728268   -2.9124471    5.2533954  
H   -2.2742832   -1.9066565    1.1752040  
H    1.6189533    1.3585343    2.0405121  
