48
33A 34A 43B 17A 26B 47 44 46 27 31 2 3 4 3 4 3 0 2 0 nosym
C    1.1188644    0.0008217   -0.8003807  
C    0.0000000    0.0000000    0.0000000  
C   -1.1323862    0.0008904   -0.8673526  
C   -0.6382660    0.0019682   -2.1969280  
N    0.7324018    0.0038477   -2.1202240  
C   -1.4770912    0.0027325   -3.3154810  
C   -2.8395475    0.0020958   -3.0876858  
O   -3.7039195    0.0024443   -4.1440347  
C   -3.3517868    0.0013946   -1.7684332  
O   -4.7300492    0.0012389   -1.7073123  
C   -2.5248543    0.0009136   -0.6644818  
H   -1.1067568    0.0036993   -4.3313811  
H   -4.5940030    0.0021851   -3.7685130  
H   -4.9934599    0.0007287   -0.7819913  
H   -2.9462578    0.0005617    0.3339655  
H    2.1619894    0.0009344   -0.5342067  
C    2.8233650   -0.7205623   -3.3382299  
C    3.4268647   -0.4843012   -4.5516699  
C    2.5842317    0.4170767   -5.2672727  
C    1.4720838    0.6983393   -4.4330406  
N    1.6478436   -0.0100108   -3.2702998  
C    0.4355985    1.5542925   -4.8175283  
C    0.5235715    2.1371647   -6.0668077  
O   -0.4608978    2.9814416   -6.4922844  
C    1.6251371    1.8686376   -6.9137220  
O    1.5672671    2.5248768   -8.1258873  
C    2.6478816    1.0241115   -6.5351777  
H    4.3591328   -0.9101991   -4.8810323  
H   -0.4148215    1.7726483   -4.1864111  
H   -0.2071842    3.2724203   -7.3778496  
H    2.3476242    2.2892250   -8.6368809  
H    3.4787760    0.8373913   -7.2054227  
H    3.1377222   -1.3408277   -2.5163969  
C    2.5528530    2.1414826    2.8079335  
C    2.0663498    1.7338582    4.0032312  
C    0.9804344    0.8229586    3.6752840  
C    0.9495562    0.7966882    2.1971295  
N    1.8690446    1.5676019    1.6831036  
C    0.0000000    0.0000000    1.4700000  
C   -0.8785127   -0.7372425    2.1869543  
O   -1.8187535   -1.5261249    1.6395491  
C   -0.8723269   -0.7321790    3.6796354  
O   -1.7010379   -1.4274584    4.2670412  
C    0.1115397    0.0933559    4.4024240  
H    2.4028853    2.0163452    4.9860947  
H   -2.2861435   -1.9184361    2.3990168  
H    0.0832434    0.0693689    5.4835595  
H    3.3664920    2.8238276    2.6198634  
