46
31A 36B 5A 16A 17B 26B 45 43 13 29 27 28 2 7 7 2 3 4 2 1 3 0 nosym
C    0.0000000    0.0000000    0.0000000  
C    1.0521668   -0.0011901   -0.8862342  
C    0.4917217   -0.0011956   -2.1979133  
C   -0.9187428    0.0003148   -2.0478683  
N   -1.1833173   -0.0009411   -0.7007912  
C   -1.7951703    0.0010350   -3.1372089  
C   -1.2375839    0.0005225   -4.4010424  
O   -2.0474218    0.0015361   -5.4997581  
C    0.1673577   -0.0013566   -4.5711965  
O    0.5673522   -0.0020687   -5.8915550  
C    1.0325768   -0.0023412   -3.4969891  
H    2.0953058   -0.0030649   -0.6200564  
H   -2.0989775    0.0102371   -0.2891826  
H   -2.8710934    0.0020420   -3.0295514  
H   -1.4634887    0.0006497   -6.2693593  
H    1.5290707   -0.0033152   -5.9180043  
C    4.2912348   -2.1142473   -1.4465410  
C    5.3462922   -1.6514996   -2.1654245  
C    4.8141504   -0.7556974   -3.1650241  
C    3.3521073   -0.7343150   -2.9681401  
N    3.0997482   -1.5787546   -1.9116716  
C    2.4861699   -0.0045381   -3.7159923  
C    3.0304416    0.8143454   -4.7863816  
O    2.3328558    1.5072096   -5.5155003  
C    4.5758839    0.8067604   -5.0130020  
O    5.0456334    1.4919960   -5.9113608  
C    5.4069279   -0.0204839   -4.1418624  
H    6.3794045   -1.9085120   -2.0129870  
H    6.4760570   -0.0200032   -4.3052234  
H    4.2838630   -2.8015797   -0.6162341  
H    2.1903304   -1.7741998   -1.5350979  
C    3.1301144    0.0010313    3.1728260  
C    2.5367765    0.0002768    1.9564670  
C    1.1089900   -0.0001027    2.2356185  
C    1.0177864    0.0004150    3.7115134  
N    2.1993570    0.0011613    4.2663826  
C   -0.2459220    0.0002880    4.3957118  
C   -1.3675327    0.0000606    3.6398520  
O   -2.6129319   -0.0000866    4.1448486  
C   -1.3083589   -0.0000910    2.1483229  
O   -2.3693264   -0.0004206    1.5241687  
C    0.0000000    0.0000000    1.4700000  
H    3.0096015    0.0001008    0.9892483  
H   -0.2829642    0.0004689    5.4753125  
H   -3.1967446   -0.0002093    3.3649027  
H    4.1849273    0.0015113    3.3971983  
