44
34B 0A 14A 15B 24A 40 12 27 25 26 7 2 2 3 4 1 1 3 0 nosym
C    3.2573671   -0.0002919   -1.5109380  
C    2.5379468   -0.0001709   -0.3591959  
C    1.1435044    0.0000332   -0.7338500  
C    1.1092611   -0.0000081   -2.2088474  
N    2.4227564    0.0001910   -2.6182609  
C   -0.0265530   -0.0002522   -2.9515663  
C   -1.3003034   -0.0002639   -2.2514982  
O   -2.3786783   -0.0004131   -2.8306430  
C   -1.2877725    0.0000312   -0.6895609  
O   -2.3539957    0.0003306   -0.0892038  
C    0.0000000    0.0000000    0.0000000  
H    2.9384088   -0.0000368    0.6389240  
H    4.3270397   -0.0004764   -1.6439442  
H    2.7280495   -0.0013405   -3.5742112  
C    2.4782026   -2.1081877   -5.8783638  
C    1.9212522   -1.6438942   -7.0265417  
C    0.8545989   -0.7486152   -6.6450159  
C    0.8356637   -0.7292245   -5.1698698  
N    1.8439058   -1.5742005   -4.7669394  
C   -0.0307349   -0.0004645   -4.4215603  
C   -1.0100797    0.8193481   -5.1153372  
O   -1.8333381    1.5114169   -4.5308827  
C   -1.0083715    0.8138720   -6.6773145  
O   -1.8284250    1.4999047   -7.2724046  
C   -0.0251090   -0.0124252   -7.3732162  
H    2.2230627   -1.8995541   -8.0266227  
H   -0.0304428   -0.0104845   -8.4547392  
H    3.2985201   -2.7956864   -5.7506347  
H    2.0835086   -1.7709324   -3.8125106  
C    0.8175213    0.6860729    2.3021913  
C    0.0000000    0.0000000    1.4700000  
C   -0.8887526   -0.7456559    2.3478473  
C   -0.4549825   -0.3816753    3.7138435  
N    0.5448156    0.4573574    3.6934124  
C   -1.0945674   -0.9182058    4.8835240  
C   -2.1210866   -1.7789155    4.6970523  
O   -2.8083856   -2.3554314    5.6976972  
C   -2.5824069   -2.1655116    3.3310774  
O   -3.5227682   -2.9541547    3.2362962  
C   -1.9100805   -1.6015804    2.1470656  
H   -0.7567140   -0.6349833    5.8697035  
H   -3.4728268   -2.9124471    5.2533954  
H   -2.2742832   -1.9066565    1.1752040  
H    1.6189533    1.3585343    2.0405121  
