46
36B 41B 16A 20A 21B 43 45 29 30 28 7 4 2 1 7 2 0 3 0 nosym
C    3.3041272    0.0001176   -1.5420431  
C    2.5845372   -0.0004781   -0.3695853  
C    1.2040006   -0.0000009   -0.7283588  
C    1.1422374    0.0006035   -2.1454372  
N    2.4348639    0.0026108   -2.6077465  
C   -0.0655182    0.0008795   -2.8497919  
C   -1.2321769    0.0002322   -2.1101399  
O   -2.4392814    0.0001143   -2.7472520  
C   -1.1911210   -0.0000008   -0.6955264  
O   -2.4371527   -0.0002321   -0.1032861  
C    0.0000000    0.0000000    0.0000000  
H    3.0031535   -0.0000660    0.6222584  
H   -0.1193549    0.0014841   -3.9297469  
H   -3.1132989   -0.0000650   -2.0551785  
H   -2.3200281   -0.0004071    0.8516412  
H    4.3686623    0.0004070   -1.7024293  
C    5.6515799   -2.1002976   -4.7819009  
C    4.8081957   -1.6310298   -3.8266176  
C    3.8761260   -0.7467204   -4.4854639  
C    4.2482781   -0.7392324   -5.9131323  
N    5.3319464   -1.5792871   -6.0265386  
C    3.6067593   -0.0234894   -6.8711878  
C    2.4743156    0.7942201   -6.4693699  
O    1.8313257    1.4750508   -7.2576174  
C    2.0628000    0.8015929   -4.9625833  
O    1.1111838    1.4864536   -4.6123646  
C    2.8310664   -0.0116222   -4.0232753  
H    4.8359711   -1.8762188   -2.7798492  
H    3.8957834   -0.0321198   -7.9129651  
H    6.4798590   -2.7827406   -4.6813304  
H    5.8148558   -1.7840905   -6.8820508  
C    0.0000000    0.0000000    1.4700000  
C    1.0662921    0.0000102    2.3034270  
C    0.4961870   -0.0000064    3.6418889  
C   -0.9663858    0.0000850    3.4240247  
N   -1.2632773    0.0000084    2.1528658  
C   -1.8985362    0.0000517    4.5177257  
C   -1.3925775   -0.0004564    5.7720543  
O   -2.1456383   -0.0005410    6.8851312  
C    0.0786232   -0.0009323    6.0245000  
O    0.4683759   -0.0012588    7.1921102  
C    1.0143166   -0.0008442    4.8859032  
H    2.1107198   -0.0000632    2.0421868  
H   -2.9622183    0.0003270    4.3293377  
H   -1.5042274   -0.0009692    7.6184419  
H    2.0724152   -0.0013148    5.1109744  
