48
38B 5A 16A 17B 26B 44 13 32 27 31 7 7 2 3 4 1 1 3 0 nosym
C    3.3041269    0.0001177   -1.5420434  
C    2.5845370   -0.0004780   -0.3695856  
C    1.2040006   -0.0000007   -0.7283591  
C    1.1422372    0.0006038   -2.1454374  
N    2.4348634    0.0026110   -2.6077469  
C   -0.0655187    0.0008799   -2.8497915  
C   -1.2321772    0.0002326   -2.1101397  
O   -2.4392820    0.0001149   -2.7472517  
C   -1.1911209   -0.0000007   -0.6955263  
O   -2.4371523   -0.0002319   -0.1032858  
C    0.0000000    0.0000000    0.0000000  
H    3.0031535   -0.0000661    0.6222578  
H    2.7054623   -0.0071098   -3.5745264  
H   -0.1193555    0.0014846   -3.9297470  
H   -3.1132995   -0.0000646   -2.0551782  
H   -2.3200286   -0.0004070    0.8516413  
C    6.7068652   -0.0034179    1.2828885  
C    7.7136027   -0.0021476    0.3453674  
C    7.0885452   -0.0007422   -0.9367797  
C    5.6872998   -0.0009463   -0.7166947  
N    5.4901253   -0.0045363    0.6418804  
C    4.7577216    0.0005129   -1.7610467  
C    5.2516908    0.0025159   -3.0510729  
O    4.3881527    0.0043528   -4.1081030  
C    6.6464198    0.0023763   -3.2909677  
O    6.9801783    0.0041001   -4.6296035  
C    7.5640500    0.0006641   -2.2611728  
H    8.7687021   -0.0033297    0.5592763  
H    4.5960836    0.0050495    1.0985848  
H    4.9330440    0.0052559   -4.9058230  
H    7.9393886    0.0039069   -4.7039040  
H    8.6263215    0.0004196   -2.4757859  
H    6.7604661   -0.0050605    2.3581015  
C    0.8175213    0.6860729    2.3021913  
C    0.0000000    0.0000000    1.4700000  
C   -0.8887526   -0.7456559    2.3478473  
C   -0.4549825   -0.3816753    3.7138435  
N    0.5448156    0.4573574    3.6934124  
C   -1.0945674   -0.9182058    4.8835240  
C   -2.1210866   -1.7789155    4.6970523  
O   -2.8083856   -2.3554314    5.6976972  
C   -2.5824069   -2.1655116    3.3310774  
O   -3.5227682   -2.9541547    3.2362962  
C   -1.9100805   -1.6015804    2.1470656  
H   -0.7567140   -0.6349833    5.8697035  
H   -3.4728268   -2.9124471    5.2533954  
H   -2.2742832   -1.9066565    1.1752040  
H    1.6189533    1.3585343    2.0405121  
