44
34B 39B 5A 14A 15B 24B 41 43 12 28 25 27 7 4 7 2 3 4 2 1 3 0 nosym
C    3.2573672   -0.0002920   -1.5109379  
C    2.5379469   -0.0001709   -0.3591960  
C    1.1435044    0.0000331   -0.7338498  
C    1.1092608   -0.0000083   -2.2088475  
N    2.4227563    0.0001909   -2.6182608  
C   -0.0265531   -0.0002524   -2.9515661  
C   -1.3003038   -0.0002640   -2.2514979  
O   -2.3786783   -0.0004133   -2.8306426  
C   -1.2877724    0.0000311   -0.6895607  
O   -2.3539956    0.0003306   -0.0892035  
C    0.0000000    0.0000000    0.0000000  
H    2.9384089   -0.0000367    0.6389238  
H   -0.0296289   -0.0004086   -4.0327230  
H    2.7280494   -0.0013407   -3.5742114  
C    6.4550019   -0.0009257    1.4492358  
C    7.5628471   -0.0014712    0.6718962  
C    7.0625127   -0.0013727   -0.6941804  
C    5.5906519   -0.0008359   -0.5520171  
N    5.2286136   -0.0004914    0.7021433  
C    4.7161333   -0.0005435   -1.6923255  
C    5.2860929   -0.0003877   -2.9188981  
O    4.5914247   -0.0001201   -4.0693228  
C    6.7683530   -0.0005474   -3.0951522  
O    7.2177899   -0.0005153   -4.2411132  
C    7.6440948   -0.0008910   -1.9098250  
H    8.5924157   -0.0017984    0.9866400  
H    5.2697928   -0.0000403   -4.7685867  
H    8.7123912   -0.0008824   -2.0800408  
H    6.3993982   -0.0008022    2.5262141  
C    0.0000000    0.0000000    1.4700000  
C    1.0662921    0.0000102    2.3034270  
C    0.4961870   -0.0000064    3.6418889  
C   -0.9663858    0.0000850    3.4240247  
N   -1.2632773    0.0000084    2.1528658  
C   -1.8985362    0.0000517    4.5177257  
C   -1.3925775   -0.0004564    5.7720543  
O   -2.1456383   -0.0005410    6.8851312  
C    0.0786232   -0.0009323    6.0245000  
O    0.4683759   -0.0012588    7.1921102  
C    1.0143166   -0.0008442    4.8859032  
H    2.1107198   -0.0000632    2.0421868  
H   -2.9622183    0.0003270    4.3293377  
H   -1.5042274   -0.0009692    7.6184419  
H    2.0724152   -0.0013148    5.1109744  
