46
36B 41B 0A 16A 17B 26A 43 45 15 29 27 28 7 4 2 2 3 4 2 1 3 0 nosym
C    3.3003543    0.0005277   -1.4738990  
C    2.5232811    0.0003499   -2.6090749  
C    1.1623199   -0.0001317   -2.1820104  
C    1.1711881    0.0000584   -0.7636144  
N    2.4852300   -0.0014918   -0.3662360  
C    0.0000000    0.0000000    0.0000000  
C   -1.2020384    0.0000520   -0.6806478  
O   -2.3759250    0.0003494    0.0157748  
C   -1.2314658   -0.0005111   -2.0955509  
O   -2.5054391   -0.0008036   -2.6250178  
C   -0.0764518   -0.0007271   -2.8495195  
H    2.8919951   -0.0005617   -3.6205306  
H    2.8036264    0.0088181    0.5858657  
H   -3.0835640    0.0000348   -0.6418817  
H   -2.4360050   -0.0011525   -3.5845919  
H    4.3715549    0.0004896   -1.3667139  
C    2.2883732   -2.1096666   -5.8898013  
C    1.6780803   -1.6459101   -7.0107595  
C    0.6304141   -0.7505690   -6.5799515  
C    0.6807522   -0.7305567   -5.1055512  
N    1.7068943   -1.5752686   -4.7500468  
C   -0.1496418   -0.0015610   -4.3176961  
C   -1.1605702    0.8178674   -4.9650724  
O   -1.9555601    1.5101067   -4.3429015  
C   -1.2321944    0.8117314   -6.5254052  
O   -2.0793591    1.4974364   -7.0816260  
C   -0.2825940   -0.0147685   -7.2663562  
H    1.9326354   -1.9019645   -8.0238001  
H   -0.3386970   -0.0132853   -8.3464369  
H    3.1138601   -2.7970350   -5.8004378  
H    1.9910632   -1.7715749   -3.8078371  
C    0.0000000    0.0000000    1.4700000  
C    1.0662921    0.0000102    2.3034270  
C    0.4961870   -0.0000064    3.6418889  
C   -0.9663858    0.0000850    3.4240247  
N   -1.2632773    0.0000084    2.1528658  
C   -1.8985362    0.0000517    4.5177257  
C   -1.3925775   -0.0004564    5.7720543  
O   -2.1456383   -0.0005410    6.8851312  
C    0.0786232   -0.0009323    6.0245000  
O    0.4683759   -0.0012588    7.1921102  
C    1.0143166   -0.0008442    4.8859032  
H    2.1107198   -0.0000632    2.0421868  
H   -2.9622183    0.0003270    4.3293377  
H   -1.5042274   -0.0009692    7.6184419  
H    2.0724152   -0.0013148    5.1109744  
