46
36B 5B 21B 26B 42 13 28 30 7 7 7 4 1 1 2 0 nosym
C    3.3041269    0.0001177   -1.5420434  
C    2.5845370   -0.0004780   -0.3695856  
C    1.2040006   -0.0000007   -0.7283591  
C    1.1422372    0.0006038   -2.1454374  
N    2.4348634    0.0026110   -2.6077469  
C   -0.0655187    0.0008799   -2.8497915  
C   -1.2321772    0.0002326   -2.1101397  
O   -2.4392820    0.0001149   -2.7472517  
C   -1.1911209   -0.0000007   -0.6955263  
O   -2.4371523   -0.0002319   -0.1032858  
C    0.0000000    0.0000000    0.0000000  
H    3.0031535   -0.0000661    0.6222578  
H    2.7054623   -0.0071098   -3.5745264  
H   -0.1193555    0.0014846   -3.9297470  
H   -3.1132995   -0.0000646   -2.0551782  
H   -2.3200286   -0.0004070    0.8516413  
C    4.7577216    0.0005129   -1.7610467  
C    5.7407058   -0.0008417   -0.8308212  
C    6.9792949    0.0003732   -1.5939697  
C    6.5459652    0.0023746   -3.0077607  
N    5.2447608    0.0025462   -3.1119587  
C    7.4885861    0.0040730   -4.0924488  
C    8.8042951    0.0041741   -3.7790085  
O    9.7927577    0.0056656   -4.6894921  
C    9.2731064    0.0025538   -2.3618373  
O   10.4857521    0.0026209   -2.1503869  
C    8.2866183    0.0007833   -1.2669573  
H    5.6379823   -0.0023748    0.2408697  
H    7.1438311    0.0053117   -5.1161929  
H   10.6134433    0.0053475   -4.1644895  
H    8.6668151   -0.0002419   -0.2541992  
C    0.8175213    0.6860729    2.3021913  
C    0.0000000    0.0000000    1.4700000  
C   -0.8887526   -0.7456559    2.3478473  
C   -0.4549825   -0.3816753    3.7138435  
N    0.5448156    0.4573574    3.6934124  
C   -1.0945674   -0.9182058    4.8835240  
C   -2.1210866   -1.7789155    4.6970523  
O   -2.8083856   -2.3554314    5.6976972  
C   -2.5824069   -2.1655116    3.3310774  
O   -3.5227682   -2.9541547    3.2362962  
C   -1.9100805   -1.6015804    2.1470656  
H   -0.7567140   -0.6349833    5.8697035  
H   -3.4728268   -2.9124471    5.2533954  
H   -2.2742832   -1.9066565    1.1752040  
H    1.6189533    1.3585343    2.0405121  
