44
29A 34B 14A 18A 19B 43 41 27 28 26 2 7 2 1 7 2 0 3 0 nosym
C    3.2573670   -0.0002919   -1.5109382  
C    2.5379467   -0.0001709   -0.3591962  
C    1.1435041    0.0000332   -0.7338497  
C    1.1092604   -0.0000081   -2.2088473  
N    2.4227560    0.0001911   -2.6182609  
C   -0.0265535   -0.0002522   -2.9515658  
C   -1.3003039   -0.0002638   -2.2514975  
O   -2.3786791   -0.0004131   -2.8306422  
C   -1.2877728    0.0000312   -0.6895603  
O   -2.3539955    0.0003306   -0.0892030  
C    0.0000000    0.0000000    0.0000000  
H    2.9384090   -0.0000367    0.6389240  
H   -0.0296294   -0.0004083   -4.0327228  
H    4.3270395   -0.0004763   -1.6439445  
C    5.7077617   -2.0955286   -4.6950677  
C    4.8321764   -1.6318729   -3.7663867  
C    3.9281495   -0.7371773   -4.4498270  
C    4.3518498   -0.7174788   -5.8629372  
N    5.4355525   -1.5611008   -5.9452793  
C    3.7483562    0.0102946   -6.8365110  
C    2.6053637    0.8289911   -6.4679469  
O    1.9941032    1.5202157   -7.2722290  
C    2.1395165    0.8235573   -4.9770538  
O    1.1785714    1.5091258   -4.6548102  
C    2.8699637   -0.0020523   -4.0185822  
H    4.8209987   -1.8873087   -2.7217619  
H    4.0749275    0.0104992   -7.8671717  
H    6.5291168   -2.7825099   -4.5712833  
H    5.9483422   -1.7597058   -6.7847130  
C    2.3971438    2.0127888    3.1728260  
C    1.9431056    1.6308205    1.9564670  
C    0.8496017    0.7127664    2.2356185  
C    0.7794028    0.6545384    3.7115134  
N    1.6840587    1.4146091    4.2663826  
C   -0.1885723   -0.1578550    4.3957118  
C   -1.0476298   -0.8789867    3.6398520  
O   -2.0015663   -1.6796266    4.1448486  
C   -1.0022026   -0.8410666    2.1483229  
O   -1.8147390   -1.5232959    1.5241687  
C    0.0000000    0.0000000    1.4700000  
H    2.3054237    1.9346118    0.9892483  
H   -0.2170646   -0.1815267    5.4753125  
H   -2.4487139   -2.0549881    3.3649027  
H    3.2048689    2.6911772    3.3971983  
