46
31A 36B 16A 20A 21B 45 43 29 30 28 2 7 2 1 7 2 0 3 0 nosym
C    3.3041272    0.0001176   -1.5420431  
C    2.5845372   -0.0004781   -0.3695853  
C    1.2040006   -0.0000009   -0.7283588  
C    1.1422374    0.0006035   -2.1454372  
N    2.4348639    0.0026108   -2.6077465  
C   -0.0655182    0.0008795   -2.8497919  
C   -1.2321769    0.0002322   -2.1101399  
O   -2.4392814    0.0001143   -2.7472520  
C   -1.1911210   -0.0000008   -0.6955264  
O   -2.4371527   -0.0002321   -0.1032861  
C    0.0000000    0.0000000    0.0000000  
H    3.0031535   -0.0000660    0.6222584  
H   -0.1193549    0.0014841   -3.9297469  
H   -3.1132989   -0.0000650   -2.0551785  
H   -2.3200281   -0.0004071    0.8516412  
H    4.3686623    0.0004070   -1.7024293  
C    5.6515799   -2.1002976   -4.7819009  
C    4.8081957   -1.6310298   -3.8266176  
C    3.8761260   -0.7467204   -4.4854639  
C    4.2482781   -0.7392324   -5.9131323  
N    5.3319464   -1.5792871   -6.0265386  
C    3.6067593   -0.0234894   -6.8711878  
C    2.4743156    0.7942201   -6.4693699  
O    1.8313257    1.4750508   -7.2576174  
C    2.0628000    0.8015929   -4.9625833  
O    1.1111838    1.4864536   -4.6123646  
C    2.8310664   -0.0116222   -4.0232753  
H    4.8359711   -1.8762188   -2.7798492  
H    3.8957834   -0.0321198   -7.9129651  
H    6.4798590   -2.7827406   -4.6813304  
H    5.8148558   -1.7840905   -6.8820508  
C    2.3971438    2.0127888    3.1728260  
C    1.9431056    1.6308205    1.9564670  
C    0.8496017    0.7127664    2.2356185  
C    0.7794028    0.6545384    3.7115134  
N    1.6840587    1.4146091    4.2663826  
C   -0.1885723   -0.1578550    4.3957118  
C   -1.0476298   -0.8789867    3.6398520  
O   -2.0015663   -1.6796266    4.1448486  
C   -1.0022026   -0.8410666    2.1483229  
O   -1.8147390   -1.5232959    1.5241687  
C    0.0000000    0.0000000    1.4700000  
H    2.3054237    1.9346118    0.9892483  
H   -0.2170646   -0.1815267    5.4753125  
H   -2.4487139   -2.0549881    3.3649027  
H    3.2048689    2.6911772    3.3971983  
