46
31A 32A 41B 0A 20B 21A 45 42 44 15 30 27 2 3 4 2 1 7 3 1 2 0 nosym
C    3.3041273    0.0001178   -1.5420431  
C    2.5845371   -0.0004779   -0.3695856  
C    1.2040005   -0.0000007   -0.7283590  
C    1.1422373    0.0006038   -2.1454373  
N    2.4348641    0.0026111   -2.6077466  
C   -0.0655181    0.0008799   -2.8497918  
C   -1.2321768    0.0002325   -2.1101399  
O   -2.4392816    0.0001148   -2.7472520  
C   -1.1911210   -0.0000007   -0.6955263  
O   -2.4371525   -0.0002320   -0.1032863  
C    0.0000000    0.0000000    0.0000000  
H    3.0031536   -0.0000660    0.6222581  
H    2.7054629   -0.0071097   -3.5745261  
H   -3.1132988   -0.0000648   -2.0551785  
H   -2.3200280   -0.0004071    0.8516411  
H    4.3686620    0.0004072   -1.7024293  
C    0.6611981   -0.7016923   -5.1602639  
C   -0.1387082    0.0017019   -4.3179684  
C   -1.0659755    0.7435467   -5.1393560  
C   -0.7383873    0.4122893   -6.5392648  
N    0.3175304   -0.4679249   -6.4831336  
C   -1.3893424    0.9119185   -7.6201593  
C   -2.4856331    1.8378814   -7.3893462  
O   -3.1337390    2.3423482   -8.2969653  
C   -2.8496758    2.2029988   -5.9149079  
O   -3.7705838    2.9817559   -5.7082042  
C   -2.0753677    1.5999278   -4.8329636  
H   -1.1332425    0.6558888   -8.6388699  
H   -2.3339021    1.8577614   -3.8149232  
H    1.4729781   -1.3710025   -4.9258992  
H    0.7677101   -0.8789299   -7.2802915  
C    2.5528530    2.1414826    2.8079335  
C    2.0663498    1.7338582    4.0032312  
C    0.9804344    0.8229586    3.6752840  
C    0.9495562    0.7966882    2.1971295  
N    1.8690446    1.5676019    1.6831036  
C    0.0000000    0.0000000    1.4700000  
C   -0.8785127   -0.7372425    2.1869543  
O   -1.8187535   -1.5261249    1.6395491  
C   -0.8723269   -0.7321790    3.6796354  
O   -1.7010379   -1.4274584    4.2670412  
C    0.1115397    0.0933559    4.4024240  
H    2.4028853    2.0163452    4.9860947  
H   -2.2861435   -1.9184361    2.3990168  
H    0.0832434    0.0693689    5.4835595  
H    3.3664920    2.8238276    2.6198634  
