44
34B 39B 14A 18A 19B 41 43 27 28 26 7 4 2 1 7 2 0 3 0 nosym
C    1.1319247    0.0015655   -0.8009268  
C    0.7969912    0.0034942   -2.1169401  
C   -0.6453342    0.0035709   -2.1842667  
C   -1.1266836    0.0015433   -0.7896023  
N    0.0000000    0.0000000    0.0000000  
C   -2.4346131    0.0013964   -0.4276290  
C   -3.4350113    0.0031409   -1.4820177  
O   -4.6384612    0.0030974   -1.2583907  
C   -2.9478964    0.0050505   -2.9661068  
O   -3.7809385    0.0062217   -3.8623768  
C   -1.5113830    0.0053089   -3.2312121  
H   -2.7664564    0.0000233    0.6013452  
H   -1.1823538    0.0068406   -4.2614846  
H    2.1104315    0.0009390   -0.3488059  
C    4.6221899   -2.0851346   -2.8253994  
C    3.4630781   -1.6242780   -2.2886070  
C    2.8772250   -0.7284924   -3.2577199  
C    3.7966155   -0.7051039   -4.4113942  
N    4.8342962   -1.5478476   -4.0859840  
C    3.5979651    0.0246508   -5.5382043  
C    2.3987171    0.8417381   -5.6201041  
O    2.1298749    1.5345289   -6.5927630  
C    1.4112263    0.8323994   -4.4099058  
O    0.3983790    1.5165849   -4.4672756  
C    1.7334690    0.0049245   -3.2500365  
H    3.0641038   -1.8822524   -1.3237848  
H    4.2848306    0.0275577   -6.3731400  
H    5.3394034   -2.7719014   -2.4060595  
H    5.6230774   -1.7440970   -4.6745054  
C    0.0000000    0.0000000    1.4700000  
C    1.0662921    0.0000102    2.3034270  
C    0.4961870   -0.0000064    3.6418889  
C   -0.9663858    0.0000850    3.4240247  
N   -1.2632773    0.0000084    2.1528658  
C   -1.8985362    0.0000517    4.5177257  
C   -1.3925775   -0.0004564    5.7720543  
O   -2.1456383   -0.0005410    6.8851312  
C    0.0786232   -0.0009323    6.0245000  
O    0.4683759   -0.0012588    7.1921102  
C    1.0143166   -0.0008442    4.8859032  
H    2.1107198   -0.0000632    2.0421868  
H   -2.9622183    0.0003270    4.3293377  
H   -1.5042274   -0.0009692    7.6184419  
H    2.0724152   -0.0013148    5.1109744  
