44
34B 39B 14A 15A 24B 41 43 27 25 26 7 4 2 3 4 2 0 3 0 nosym
C    3.2573670   -0.0002919   -1.5109382  
C    2.5379467   -0.0001709   -0.3591962  
C    1.1435041    0.0000332   -0.7338497  
C    1.1092604   -0.0000081   -2.2088473  
N    2.4227560    0.0001911   -2.6182609  
C   -0.0265535   -0.0002522   -2.9515658  
C   -1.3003039   -0.0002638   -2.2514975  
O   -2.3786791   -0.0004131   -2.8306422  
C   -1.2877728    0.0000312   -0.6895603  
O   -2.3539955    0.0003306   -0.0892030  
C    0.0000000    0.0000000    0.0000000  
H    2.9384090   -0.0000367    0.6389240  
H   -0.0296294   -0.0004083   -4.0327228  
H    4.3270395   -0.0004763   -1.6439445  
C    5.7040768   -2.1117451   -4.6322114  
C    5.5266115   -1.6490477   -5.8965262  
C    4.3947073   -0.7532599   -5.8619878  
C    3.9239247   -0.7318314   -4.4638836  
N    4.7594833   -1.5762333   -3.7698253  
C    2.8699637   -0.0020523   -4.0185822  
C    2.1511676    0.8167849   -4.9805452  
O    1.1885417    1.5096471   -4.6779000  
C    2.6322116    0.8091507   -6.4665951  
O    2.0346731    1.4943471   -7.2855668  
C    3.7812703   -0.0180911   -6.8260210  
H    6.1207066   -1.9060842   -6.7553613  
H    4.1081484   -0.0176448   -7.8569787  
H    6.4453140   -2.7990532   -4.2579584  
H    4.6944959   -1.7716424   -2.7876648  
C    0.0000000    0.0000000    1.4700000  
C    1.0662921    0.0000102    2.3034270  
C    0.4961870   -0.0000064    3.6418889  
C   -0.9663858    0.0000850    3.4240247  
N   -1.2632773    0.0000084    2.1528658  
C   -1.8985362    0.0000517    4.5177257  
C   -1.3925775   -0.0004564    5.7720543  
O   -2.1456383   -0.0005410    6.8851312  
C    0.0786232   -0.0009323    6.0245000  
O    0.4683759   -0.0012588    7.1921102  
C    1.0143166   -0.0008442    4.8859032  
H    2.1107198   -0.0000632    2.0421868  
H   -2.9622183    0.0003270    4.3293377  
H   -1.5042274   -0.0009692    7.6184419  
H    2.0724152   -0.0013148    5.1109744  
