46
36B 0B 21B 26A 42 15 28 30 7 2 7 4 1 1 2 0 nosym
C    3.3003543    0.0005277   -1.4738990  
C    2.5232811    0.0003499   -2.6090749  
C    1.1623199   -0.0001317   -2.1820104  
C    1.1711881    0.0000584   -0.7636144  
N    2.4852300   -0.0014918   -0.3662360  
C    0.0000000    0.0000000    0.0000000  
C   -1.2020384    0.0000520   -0.6806478  
O   -2.3759250    0.0003494    0.0157748  
C   -1.2314658   -0.0005111   -2.0955509  
O   -2.5054391   -0.0008036   -2.6250178  
C   -0.0764518   -0.0007271   -2.8495195  
H    2.8919951   -0.0005617   -3.6205306  
H    2.8036264    0.0088181    0.5858657  
H   -3.0835640    0.0000348   -0.6418817  
H   -2.4360050   -0.0011525   -3.5845919  
H    4.3715549    0.0004896   -1.3667139  
C   -0.1496418   -0.0015610   -4.3176961  
C    0.8738321   -0.0018368   -5.2031791  
C    0.2377934   -0.0026903   -6.5115956  
C   -1.2121181   -0.0029423   -6.2211810  
N   -1.4453516   -0.0022022   -4.9368176  
C   -2.1975669   -0.0037105   -7.2671147  
C   -1.7546876   -0.0038157   -8.5450791  
O   -2.5622335   -0.0045089   -9.6192813  
C   -0.2978807   -0.0031972   -8.8704614  
O    0.0332542   -0.0034574  -10.0560289  
C    0.6933418   -0.0024576   -7.7798646  
H    1.9299715   -0.0014123   -4.9942639  
H   -3.2505500   -0.0040856   -7.0260004  
H   -1.9581292   -0.0043721  -10.3836180  
H    1.7389218   -0.0019091   -8.0573385  
C    0.8175213    0.6860729    2.3021913  
C    0.0000000    0.0000000    1.4700000  
C   -0.8887526   -0.7456559    2.3478473  
C   -0.4549825   -0.3816753    3.7138435  
N    0.5448156    0.4573574    3.6934124  
C   -1.0945674   -0.9182058    4.8835240  
C   -2.1210866   -1.7789155    4.6970523  
O   -2.8083856   -2.3554314    5.6976972  
C   -2.5824069   -2.1655116    3.3310774  
O   -3.5227682   -2.9541547    3.2362962  
C   -1.9100805   -1.6015804    2.1470656  
H   -0.7567140   -0.6349833    5.8697035  
H   -3.4728268   -2.9124471    5.2533954  
H   -2.2742832   -1.9066565    1.1752040  
H    1.6189533    1.3585343    2.0405121  
