44
34B 39B 19B 41 43 25 7 4 7 2 0 1 0 nosym
C    1.0965514    0.0001359   -0.8010305  
C    0.0000000    0.0000000    0.0000000  
C   -1.1546565    0.0001470   -0.8669508  
C   -0.6372019    0.0003521   -2.2486278  
N    0.7342868    0.0007339   -2.1395011  
C   -1.4147745    0.0001355   -3.3608712  
C   -2.8576054   -0.0001045   -3.1854454  
O   -3.6427786   -0.0002490   -4.1244897  
C   -3.4275844   -0.0000724   -1.7311659  
O   -4.6406828    0.0000334   -1.5710047  
C   -2.4891866   -0.0001090   -0.6116741  
H   -1.0150455    0.0001619   -4.3654242  
H   -2.8919121   -0.0002919    0.3920869  
H    2.1388271    0.0000663   -0.5261648  
C    2.8307241   -0.6880603   -3.3923518  
C    1.6707637   -0.0012341   -3.2725974  
C    1.5453235    0.7428542   -4.5164211  
C    2.7497136    0.3772362   -5.2925349  
N    3.5069260   -0.4613278   -4.6387540  
C    3.0021429    0.9119183   -6.6022981  
C    2.0925351    1.7724245   -7.1136468  
O    2.2005205    2.3472972   -8.3235645  
C    0.8669340    2.1606457   -6.3551299  
O    0.0821135    2.9490007   -6.8821724  
C    0.6305983    1.5985966   -5.0134256  
H    3.8906744    0.6275247   -7.1468544  
H    1.4055991    2.9046145   -8.4051101  
H   -0.2691113    1.9048130   -4.4967205  
H    3.2814294   -1.3598176   -2.6792035  
C    0.0000000    0.0000000    1.4700000  
C    1.0662921    0.0000102    2.3034270  
C    0.4961870   -0.0000064    3.6418889  
C   -0.9663858    0.0000850    3.4240247  
N   -1.2632773    0.0000084    2.1528658  
C   -1.8985362    0.0000517    4.5177257  
C   -1.3925775   -0.0004564    5.7720543  
O   -2.1456383   -0.0005410    6.8851312  
C    0.0786232   -0.0009323    6.0245000  
O    0.4683759   -0.0012588    7.1921102  
C    1.0143166   -0.0008442    4.8859032  
H    2.1107198   -0.0000632    2.0421868  
H   -2.9622183    0.0003270    4.3293377  
H   -1.5042274   -0.0009692    7.6184419  
H    2.0724152   -0.0013148    5.1109744  
