44
29A 30A 39B 19B 43 40 42 25 2 3 4 7 3 0 1 0 nosym
C    3.2798086    0.0005858   -1.4499646  
C    2.5571145    0.0005567   -2.5996553  
C    1.1637436    0.0001549   -2.2210360  
C    1.1336963   -0.0000199   -0.7459471  
N    2.4483514   -0.0001427   -0.3402720  
C    0.0000000    0.0000000    0.0000000  
C   -1.2757367   -0.0000186   -0.6964417  
O   -2.3524597   -0.0000640   -0.1142315  
C   -1.2676494   -0.0000872   -2.2584082  
O   -2.3355761   -0.0004100   -2.8557297  
C    0.0181560    0.0001762   -2.9516297  
H    0.0150792    0.0003321   -4.0331631  
H    4.3498549    0.0008613   -1.3200019  
H    2.7563626    0.0012824    0.6148062  
C    4.1687673   -0.6842813   -4.4361449  
C    3.1006058    0.0006265   -3.9654949  
C    2.5984214    0.7451005   -5.1100771  
C    3.5069658    0.3817820   -6.2187390  
N    4.4294535   -0.4558751   -5.8297189  
C    3.3444620    0.9174874   -7.5422566  
C    2.3206223    1.7767749   -7.7489247  
O    2.0512372    2.3523921   -8.9330433  
C    1.3864585    2.1626710   -6.6504786  
O    0.4766648    2.9500151   -6.9104514  
C    1.5741207    1.5996093   -5.3015272  
H    4.0233547    0.6347769   -8.3335145  
H    1.2688874    2.9084720   -8.7661408  
H    0.8760110    1.9041377   -4.5333249  
H    4.8175342   -1.3556517   -3.8963885  
C    2.5528530    2.1414826    2.8079335  
C    2.0663498    1.7338582    4.0032312  
C    0.9804344    0.8229586    3.6752840  
C    0.9495562    0.7966882    2.1971295  
N    1.8690446    1.5676019    1.6831036  
C    0.0000000    0.0000000    1.4700000  
C   -0.8785127   -0.7372425    2.1869543  
O   -1.8187535   -1.5261249    1.6395491  
C   -0.8723269   -0.7321790    3.6796354  
O   -1.7010379   -1.4274584    4.2670412  
C    0.1115397    0.0933559    4.4024240  
H    2.4028853    2.0163452    4.9860947  
H   -2.2861435   -1.9184361    2.3990168  
H    0.0832434    0.0693689    5.4835595  
H    3.3664920    2.8238276    2.6198634  
