46
36B 41B 10B 21B 43 45 15 27 7 4 4 7 2 1 1 0 nosym
C    3.3003548    0.0005276   -1.4738982  
C    2.5232817    0.0003497   -2.6090743  
C    1.1623206   -0.0001319   -2.1820098  
C    1.1711888    0.0000583   -0.7636138  
N    2.4852302   -0.0014919   -0.3662355  
C    0.0000000    0.0000000    0.0000000  
C   -1.2020381    0.0000520   -0.6806479  
O   -2.3759246    0.0003495    0.0157742  
C   -1.2314650   -0.0005112   -2.0955510  
O   -2.5054382   -0.0008036   -2.6250182  
C   -0.0764510   -0.0007271   -2.8495193  
H    2.8919962   -0.0005619   -3.6205297  
H    2.8036267    0.0088181    0.5858667  
H   -3.0835639    0.0000348   -0.6418822  
H   -2.4360046   -0.0011526   -3.5845924  
H   -0.1304090   -0.0013420   -3.9319086  
C    5.6973672    0.0011963   -2.3066369  
C    4.7630507    0.0004755   -1.3275395  
C    5.5210299   -0.0002217   -0.0857801  
C    6.9366168    0.0000943   -0.5132121  
N    7.0462388    0.0010057   -1.8139702  
C    8.0173667   -0.0003683    0.4339231  
C    7.6984454   -0.0007239    1.7483138  
O    8.6048015   -0.0011807    2.7405633  
C    6.2793307   -0.0006780    2.2112128  
O    6.0628274   -0.0011403    3.4229663  
C    5.1885716   -0.0002434    1.2201686  
H    9.0425398   -0.0003291    0.0934386  
H    8.0763824   -0.0013220    3.5590530  
H    4.1742365   -0.0001087    1.5961407  
H    5.5411496    0.0018573   -3.3736747  
C    0.0000000    0.0000000    1.4700000  
C    1.0662921    0.0000102    2.3034270  
C    0.4961870   -0.0000064    3.6418889  
C   -0.9663858    0.0000850    3.4240247  
N   -1.2632773    0.0000084    2.1528658  
C   -1.8985362    0.0000517    4.5177257  
C   -1.3925775   -0.0004564    5.7720543  
O   -2.1456383   -0.0005410    6.8851312  
C    0.0786232   -0.0009323    6.0245000  
O    0.4683759   -0.0012588    7.1921102  
C    1.0143166   -0.0008442    4.8859032  
H    2.1107198   -0.0000632    2.0421868  
H   -2.9622183    0.0003270    4.3293377  
H   -1.5042274   -0.0009692    7.6184419  
H    2.0724152   -0.0013148    5.1109744  
