46
36B 41B 21B 26B 43 45 28 29 7 4 7 4 2 0 2 0 nosym
C    1.1243415    0.0099154   -0.7919009  
C    0.7474086    0.0234032   -2.1148547  
C   -0.6787371    0.0234950   -2.1414700  
C   -1.1201741    0.0099356   -0.7935548  
N    0.0000000    0.0000000    0.0000000  
C   -2.4730813    0.0065397   -0.4408236  
C   -3.3971949    0.0173298   -1.4675053  
O   -4.7313511    0.0149489   -1.1793459  
C   -2.9763635    0.0305536   -2.8186319  
O   -4.0166455    0.0397857   -3.7247614  
C   -1.6418548    0.0336378   -3.1673479  
H    1.4178728    0.0310000   -2.9571213  
H   -2.8160170   -0.0039188    0.5845970  
H   -5.1938805    0.0234411   -2.0274374  
H   -3.6464652    0.0484778   -4.6127335  
H    2.1062467    0.0051380   -0.3505414  
C   -1.2456309    0.0472573   -4.5828763  
C    0.0002591    0.0520895   -5.1230709  
C   -0.1629424    0.0661186   -6.5576453  
C   -1.6164611    0.0691141   -6.8107555  
N   -2.2165824    0.0568625   -5.5727757  
C   -2.1820838    0.0817290   -8.0442935  
C   -1.3004459    0.0928898   -9.1997695  
O   -1.7128505    0.1045604  -10.3521961  
C    0.2422742    0.0896974   -8.9552088  
O    0.9944596    0.0987052   -9.9202984  
C    0.7327405    0.0759737   -7.5793067  
H    0.9277587    0.0462854   -4.5787140  
H   -3.2507708    0.0838361   -8.2080413  
H    1.8022616    0.0740520   -7.4185428  
H   -3.2072939    0.0571222   -5.4129706  
C    0.0000000    0.0000000    1.4700000  
C    1.0662921    0.0000102    2.3034270  
C    0.4961870   -0.0000064    3.6418889  
C   -0.9663858    0.0000850    3.4240247  
N   -1.2632773    0.0000084    2.1528658  
C   -1.8985362    0.0000517    4.5177257  
C   -1.3925775   -0.0004564    5.7720543  
O   -2.1456383   -0.0005410    6.8851312  
C    0.0786232   -0.0009323    6.0245000  
O    0.4683759   -0.0012588    7.1921102  
C    1.0143166   -0.0008442    4.8859032  
H    2.1107198   -0.0000632    2.0421868  
H   -2.9622183    0.0003270    4.3293377  
H   -1.5042274   -0.0009692    7.6184419  
H    2.0724152   -0.0013148    5.1109744  
