46
36B 20A 21B 42 30 27 7 1 7 1 0 2 0 nosym
C    3.3003551    0.0005277   -1.4738980  
C    2.5232820    0.0003498   -2.6090740  
C    1.1623207   -0.0001318   -2.1820099  
C    1.1711887    0.0000584   -0.7636138  
N    2.4852302   -0.0014919   -0.3662352  
C    0.0000000    0.0000000    0.0000000  
C   -1.2020382    0.0000521   -0.6806482  
O   -2.3759248    0.0003494    0.0157741  
C   -1.2314651   -0.0005111   -2.0955511  
O   -2.5054381   -0.0008036   -2.6250184  
C   -0.0764509   -0.0007271   -2.8495194  
H    2.8036266    0.0088182    0.5858670  
H   -3.0835635    0.0000348   -0.6418822  
H   -2.4360036   -0.0011526   -3.5845927  
H   -0.1304085   -0.0013419   -3.9319086  
H    4.3715552    0.0004895   -1.3667123  
C    4.0912591   -0.7049384   -4.4540732  
C    3.0267445   -0.0008950   -3.9901692  
C    2.4918045    0.7392288   -5.1086020  
C    3.3379767    0.4062539   -6.2704584  
N    4.2890158   -0.4732102   -5.8068235  
C    3.1585242    0.9039809   -7.5201661  
C    2.0587102    1.8295629   -7.7352068  
O    1.8145052    2.3323678   -8.8241749  
C    1.1499701    2.1964770   -6.5189126  
O    0.2211192    2.9749317   -6.6877457  
C    1.4426652    1.5953882   -5.2201159  
H    3.7906033    0.6467128   -8.3587356  
H    0.8086037    1.8544578   -4.3831132  
H    4.7480574   -1.3734088   -3.9214824  
H    5.0137596   -0.8850252   -6.3655743  
C    0.8175213    0.6860729    2.3021913  
C    0.0000000    0.0000000    1.4700000  
C   -0.8887526   -0.7456559    2.3478473  
C   -0.4549825   -0.3816753    3.7138435  
N    0.5448156    0.4573574    3.6934124  
C   -1.0945674   -0.9182058    4.8835240  
C   -2.1210866   -1.7789155    4.6970523  
O   -2.8083856   -2.3554314    5.6976972  
C   -2.5824069   -2.1655116    3.3310774  
O   -3.5227682   -2.9541547    3.2362962  
C   -1.9100805   -1.6015804    2.1470656  
H   -0.7567140   -0.6349833    5.8697035  
H   -3.4728268   -2.9124471    5.2533954  
H   -2.2742832   -1.9066565    1.1752040  
H    1.6189533    1.3585343    2.0405121  
