44
34B 10A 15B 24B 40 12 25 27 7 4 3 4 1 1 2 0 nosym
C    3.2798086    0.0005856   -1.4499647  
C    2.5571145    0.0005565   -2.5996553  
C    1.1637436    0.0001547   -2.2210360  
C    1.1336964   -0.0000200   -0.7459470  
N    2.4483513   -0.0001429   -0.3402720  
C    0.0000000    0.0000000    0.0000000  
C   -1.2757371   -0.0000187   -0.6964417  
O   -2.3524597   -0.0000640   -0.1142316  
C   -1.2676493   -0.0000874   -2.2584081  
O   -2.3355762   -0.0004102   -2.8557296  
C    0.0181561    0.0001758   -2.9516297  
H    2.9547354    0.0006074   -3.5989102  
H    0.0150792    0.0003317   -4.0331628  
H    2.7563626    0.0012823    0.6148063  
C    5.6706446   -0.0002810   -2.2998279  
C    6.9366753   -0.0019085   -1.8086675  
C    6.8296106   -0.0021191   -0.3687464  
C    5.3870841   -0.0004983   -0.0590621  
N    4.7390845    0.0009613   -1.2727278  
C    4.8700552   -0.0005809    1.1956833  
C    5.7961355   -0.0021606    2.3159101  
O    5.4290412   -0.0023003    3.4836182  
C    7.3281295   -0.0036399    2.0112840  
O    8.1174228   -0.0046694    2.9463116  
C    7.7645002   -0.0036802    0.6172135  
H    7.8422130   -0.0026712   -2.3888522  
H    3.8085772    0.0004946    1.4010434  
H    8.8269280   -0.0049141    0.4148035  
H    5.3397993    0.0003324   -3.3257084  
C    0.8175213    0.6860729    2.3021913  
C    0.0000000    0.0000000    1.4700000  
C   -0.8887526   -0.7456559    2.3478473  
C   -0.4549825   -0.3816753    3.7138435  
N    0.5448156    0.4573574    3.6934124  
C   -1.0945674   -0.9182058    4.8835240  
C   -2.1210866   -1.7789155    4.6970523  
O   -2.8083856   -2.3554314    5.6976972  
C   -2.5824069   -2.1655116    3.3310774  
O   -3.5227682   -2.9541547    3.2362962  
C   -1.9100805   -1.6015804    2.1470656  
H   -0.7567140   -0.6349833    5.8697035  
H   -3.4728268   -2.9124471    5.2533954  
H   -2.2742832   -1.9066565    1.1752040  
H    1.6189533    1.3585343    2.0405121  
