44
29A 30A 39B 10A 18B 19B 43 40 42 12 28 25 2 3 4 4 1 7 3 1 2 0 nosym
C    3.2798086    0.0005856   -1.4499647  
C    2.5571145    0.0005565   -2.5996553  
C    1.1637436    0.0001547   -2.2210360  
C    1.1336964   -0.0000200   -0.7459470  
N    2.4483513   -0.0001429   -0.3402720  
C    0.0000000    0.0000000    0.0000000  
C   -1.2757371   -0.0000187   -0.6964417  
O   -2.3524597   -0.0000640   -0.1142316  
C   -1.2676493   -0.0000874   -2.2584081  
O   -2.3355762   -0.0004102   -2.8557296  
C    0.0181561    0.0001758   -2.9516297  
H    2.9547354    0.0006074   -3.5989102  
H    0.0150792    0.0003317   -4.0331628  
H    2.7563626    0.0012823    0.6148063  
C    5.6664822    0.0004239   -2.2647001  
C    4.7390845    0.0009613   -1.2727278  
C    5.4604953    0.0016744   -0.0219673  
C    6.8944817    0.0015365   -0.3690593  
N    6.9515109    0.0003683   -1.7436995  
C    7.9048599    0.0024673    0.5369429  
C    7.5567528    0.0034604    1.9480970  
O    8.3942789    0.0042791    2.8407617  
C    6.0443605    0.0033717    2.3385765  
O    5.7391052    0.0038956    3.5235153  
C    5.0461772    0.0026032    1.2720487  
H    8.9502791    0.0024768    0.2612481  
H    4.0011826    0.0027521    1.5508134  
H    5.5192882   -0.0001532   -3.3325121  
H    7.7964725    0.0015561   -2.2850732  
C    2.5528530    2.1414826    2.8079335  
C    2.0663498    1.7338582    4.0032312  
C    0.9804344    0.8229586    3.6752840  
C    0.9495562    0.7966882    2.1971295  
N    1.8690446    1.5676019    1.6831036  
C    0.0000000    0.0000000    1.4700000  
C   -0.8785127   -0.7372425    2.1869543  
O   -1.8187535   -1.5261249    1.6395491  
C   -0.8723269   -0.7321790    3.6796354  
O   -1.7010379   -1.4274584    4.2670412  
C    0.1115397    0.0933559    4.4024240  
H    2.4028853    2.0163452    4.9860947  
H   -2.2861435   -1.9184361    2.3990168  
H    0.0832434    0.0693689    5.4835595  
H    3.3664920    2.8238276    2.6198634  
