46
36B 41B 10A 20B 21B 43 45 15 30 27 7 4 4 1 7 2 1 2 0 nosym
C    3.3003548    0.0005276   -1.4738982  
C    2.5232817    0.0003497   -2.6090743  
C    1.1623206   -0.0001319   -2.1820098  
C    1.1711888    0.0000583   -0.7636138  
N    2.4852302   -0.0014919   -0.3662355  
C    0.0000000    0.0000000    0.0000000  
C   -1.2020381    0.0000520   -0.6806479  
O   -2.3759246    0.0003495    0.0157742  
C   -1.2314650   -0.0005112   -2.0955510  
O   -2.5054382   -0.0008036   -2.6250182  
C   -0.0764510   -0.0007271   -2.8495193  
H    2.8919962   -0.0005619   -3.6205297  
H    2.8036267    0.0088181    0.5858667  
H   -3.0835639    0.0000348   -0.6418822  
H   -2.4360046   -0.0011526   -3.5845924  
H   -0.1304090   -0.0013420   -3.9319086  
C    5.6692774    0.0003510   -2.3388890  
C    4.7630507    0.0004755   -1.3275395  
C    5.5107321    0.0002562   -0.0923037  
C    6.9370632    0.0000210   -0.4696225  
N    6.9650293   -0.0003075   -1.8451614  
C    7.9663623    0.0001702    0.4148253  
C    7.6481549    0.0003645    1.8330212  
O    8.5043591    0.0004474    2.7077875  
C    6.1443522    0.0003632    2.2553747  
O    5.8642068    0.0002192    3.4465000  
C    5.1238530    0.0004732    1.2101794  
H    9.0057222    0.0001228    0.1170994  
H    4.0849829    0.0006770    1.5109657  
H    5.4995504    0.0004678   -3.4033523  
H    7.7983617    0.0010318   -2.4042701  
C    0.0000000    0.0000000    1.4700000  
C    1.0662921    0.0000102    2.3034270  
C    0.4961870   -0.0000064    3.6418889  
C   -0.9663858    0.0000850    3.4240247  
N   -1.2632773    0.0000084    2.1528658  
C   -1.8985362    0.0000517    4.5177257  
C   -1.3925775   -0.0004564    5.7720543  
O   -2.1456383   -0.0005410    6.8851312  
C    0.0786232   -0.0009323    6.0245000  
O    0.4683759   -0.0012588    7.1921102  
C    1.0143166   -0.0008442    4.8859032  
H    2.1107198   -0.0000632    2.0421868  
H   -2.9622183    0.0003270    4.3293377  
H   -1.5042274   -0.0009692    7.6184419  
H    2.0724152   -0.0013148    5.1109744  
