44
5B 10B 20B 29A 30A 39B 12 14 27 43 40 42 7 4 7 2 3 4 2 1 3 0 nosym
C    2.4521484    0.0014841   -3.7217480  
C    3.4891873    0.0026164   -2.8521913  
C    4.6797442    0.0027984   -3.6882979  
C    4.1623487    0.0015424   -5.0735359  
N    2.8572365    0.0008488   -5.0994555  
C    5.0381746    0.0013698   -6.2128404  
C    6.3703219    0.0027937   -5.9789272  
O    7.3023610    0.0028118   -6.9470927  
C    6.9233376    0.0044556   -4.5924454  
O    8.1464871    0.0055752   -4.4541526  
C    6.0043353    0.0045565   -3.4403343  
H    3.4509646    0.0033401   -1.7762665  
H    4.6326021    0.0002345   -7.2140494  
H    8.1530743    0.0040283   -6.4722896  
H    6.4446259    0.0058989   -2.4522189  
C    0.0000000    0.0000000    0.0000000  
C    1.0662924   -0.0000101   -0.8334268  
C    0.4961874    0.0000066   -2.1718888  
C   -0.9663853   -0.0000848   -1.9540251  
N   -1.2632772   -0.0000083   -0.6828659  
C   -1.8985358   -0.0000514   -3.0477261  
C   -1.3925768    0.0004568   -4.3020545  
O   -2.1456376    0.0005413   -5.4151313  
C    0.0786241    0.0009326   -4.5545000  
O    0.4683768    0.0012593   -5.7221102  
C    1.0143172    0.0008444   -3.4159030  
H    2.1107200    0.0000634   -0.5721863  
H   -2.9622180   -0.0003268   -2.8593381  
H   -1.5042264    0.0009696   -6.1484423  
C    3.3321173   -0.0004715    2.8079335  
C    2.6974184   -0.0000116    4.0032312  
C    1.2800439    0.0002118    3.6752840  
C    1.2395035   -0.0000644    2.1971295  
N    2.4394063   -0.0005460    1.6831036  
C    0.0000000    0.0000000    1.4700000  
C   -1.1468701   -0.0000635    2.1869543  
O   -2.3742202   -0.0000073    1.6395491  
C   -1.1388768   -0.0001607    3.6796354  
O   -2.2206231   -0.0000905    4.2670412  
C    0.1454524   -0.0001816    4.4024240  
H    3.1367986    0.0000651    4.9860947  
H   -2.9844344   -0.0001026    2.3990168  
H    0.1083576   -0.0003682    5.4835595  
H    4.3940039   -0.0007619    2.6198634  
