48
38B 43B 10A 17B 26B 45 47 15 27 31 7 4 4 3 4 2 1 2 0 nosym
C    3.3003548    0.0005276   -1.4738982  
C    2.5232817    0.0003497   -2.6090743  
C    1.1623206   -0.0001319   -2.1820098  
C    1.1711888    0.0000583   -0.7636138  
N    2.4852302   -0.0014919   -0.3662355  
C    0.0000000    0.0000000    0.0000000  
C   -1.2020381    0.0000520   -0.6806479  
O   -2.3759246    0.0003495    0.0157742  
C   -1.2314650   -0.0005112   -2.0955510  
O   -2.5054382   -0.0008036   -2.6250182  
C   -0.0764510   -0.0007271   -2.8495193  
H    2.8919962   -0.0005619   -3.6205297  
H    2.8036267    0.0088181    0.5858667  
H   -3.0835639    0.0000348   -0.6418822  
H   -2.4360046   -0.0011526   -3.5845924  
H   -0.1304090   -0.0013420   -3.9319086  
C    5.6629513   -0.0164394   -2.3673673  
C    6.9417947   -0.0276366   -1.8605136  
C    6.8262887   -0.0188866   -0.4388308  
C    5.4411292   -0.0025425   -0.1338825  
N    4.7630507    0.0004755   -1.3275395  
C    4.9554562    0.0092547    1.1771365  
C    5.8850230    0.0041582    2.1989273  
O    5.4654668    0.0148219    3.4977240  
C    7.2713262   -0.0117225    1.9147995  
O    8.0693755   -0.0145364    3.0401677  
C    7.7511731   -0.0230937    0.6216855  
H    7.8466237   -0.0394205   -2.4437275  
H    3.9009938    0.0218757    1.4162027  
H    6.2632887    0.0091676    4.0424379  
H    8.9897853   -0.0255551    2.7602963  
H    8.8186394   -0.0349826    0.4349968  
H    5.3215475   -0.0177347   -3.3883478  
C    0.0000000    0.0000000    1.4700000  
C    1.0662921    0.0000102    2.3034270  
C    0.4961870   -0.0000064    3.6418889  
C   -0.9663858    0.0000850    3.4240247  
N   -1.2632773    0.0000084    2.1528658  
C   -1.8985362    0.0000517    4.5177257  
C   -1.3925775   -0.0004564    5.7720543  
O   -2.1456383   -0.0005410    6.8851312  
C    0.0786232   -0.0009323    6.0245000  
O    0.4683759   -0.0012588    7.1921102  
C    1.0143166   -0.0008442    4.8859032  
H    2.1107198   -0.0000632    2.0421868  
H   -2.9622183    0.0003270    4.3293377  
H   -1.5042274   -0.0009692    7.6184419  
H    2.0724152   -0.0013148    5.1109744  
