46
36B 17A 26B 42 27 29 7 3 4 1 0 2 0 nosym
C    3.3041272    0.0001176   -1.5420431  
C    2.5845372   -0.0004781   -0.3695853  
C    1.2040006   -0.0000009   -0.7283588  
C    1.1422374    0.0006035   -2.1454372  
N    2.4348639    0.0026108   -2.6077465  
C   -0.0655182    0.0008795   -2.8497919  
C   -1.2321769    0.0002322   -2.1101399  
O   -2.4392814    0.0001143   -2.7472520  
C   -1.1911210   -0.0000008   -0.6955264  
O   -2.4371527   -0.0002321   -0.1032861  
C    0.0000000    0.0000000    0.0000000  
H    3.0031535   -0.0000660    0.6222584  
H   -0.1193549    0.0014841   -3.9297469  
H   -3.1132989   -0.0000650   -2.0551785  
H   -2.3200281   -0.0004071    0.8516412  
H    4.3686623    0.0004070   -1.7024293  
C    3.8860208   -0.7395031   -4.5524248  
C    3.9939102   -0.5373187   -5.8909151  
C    2.9441505    0.3812274   -6.2638941  
C    2.2105948    0.6999142   -5.0240852  
N    2.8310664   -0.0116222   -4.0232753  
C    1.1445018    1.5367993   -4.9549939  
C    0.6890271    2.1654501   -6.1837643  
O   -0.2623533    2.9344945   -6.2255535  
C    1.4508816    1.8421323   -7.5084711  
O    1.0763540    2.3652229   -8.5493199  
C    2.5861434    0.9243294   -7.4567930  
H    4.7252840   -0.9811473   -6.5426228  
H    0.6206119    1.7571751   -4.0352746  
H    3.1083970    0.7058567   -8.3783373  
H    4.4883015   -1.3591733   -3.9080984  
C    0.8175213    0.6860729    2.3021913  
C    0.0000000    0.0000000    1.4700000  
C   -0.8887526   -0.7456559    2.3478473  
C   -0.4549825   -0.3816753    3.7138435  
N    0.5448156    0.4573574    3.6934124  
C   -1.0945674   -0.9182058    4.8835240  
C   -2.1210866   -1.7789155    4.6970523  
O   -2.8083856   -2.3554314    5.6976972  
C   -2.5824069   -2.1655116    3.3310774  
O   -3.5227682   -2.9541547    3.2362962  
C   -1.9100805   -1.6015804    2.1470656  
H   -0.7567140   -0.6349833    5.8697035  
H   -3.4728268   -2.9124471    5.2533954  
H   -2.2742832   -1.9066565    1.1752040  
H    1.6189533    1.3585343    2.0405121  
