44
5B 15A 29A 30A 39B 11 28 43 40 42 7 2 2 3 4 1 1 3 0 nosym
C    0.8843990   -0.6844753   -5.2614420  
C    0.0950452    0.0004352   -4.4015596  
C   -0.8242098    0.7451348   -5.2482544  
C   -0.4370850    0.3819303   -6.6283999  
N    0.5638645   -0.4558598   -6.6424449  
C   -1.1170672    0.9178654   -7.7753450  
C   -2.1376540    1.7772633   -7.5535987  
O   -2.8595756    2.3530953   -8.5299630  
C   -2.5523415    2.1630489   -6.1725246  
O   -3.4898763    2.9505038   -6.0453847  
C   -1.8391121    1.5997518   -5.0123851  
H   -0.8128786    0.6352341   -8.7725914  
H   -3.5090801    2.9092062   -8.0630188  
H   -2.1701524    1.9042062   -4.0285410  
H    1.6951653   -1.3559829   -5.0275429  
C    3.3321174    0.0004718   -1.3379334  
C    2.6974185    0.0000117   -2.5332310  
C    1.2800440   -0.0002117   -2.2052839  
C    1.2395036    0.0000644   -0.7271297  
N    2.4394063    0.0005460   -0.2131035  
C    0.0000000    0.0000000    0.0000000  
C   -1.1468700    0.0000635   -0.7169545  
O   -2.3742202    0.0000073   -0.1695490  
C   -1.1388767    0.0001607   -2.2096357  
O   -2.2206230    0.0000904   -2.7970414  
C    0.1454526    0.0001816   -2.9324241  
H    3.1367988   -0.0000648   -3.5160946  
H   -2.9844344    0.0001025   -0.9290171  
H    4.3940040    0.0007621   -1.1498634  
C    2.5528530    2.1414826    2.8079335  
C    2.0663498    1.7338582    4.0032312  
C    0.9804344    0.8229586    3.6752840  
C    0.9495562    0.7966882    2.1971295  
N    1.8690446    1.5676019    1.6831036  
C    0.0000000    0.0000000    1.4700000  
C   -0.8785127   -0.7372425    2.1869543  
O   -1.8187535   -1.5261249    1.6395491  
C   -0.8723269   -0.7321790    3.6796354  
O   -1.7010379   -1.4274584    4.2670412  
C    0.1115397    0.0933559    4.4024240  
H    2.4028853    2.0163452    4.9860947  
H   -2.2861435   -1.9184361    2.3990168  
H    0.0832434    0.0693689    5.4835595  
H    3.3664920    2.8238276    2.6198634  
