46
36B 41B 17A 26B 43 45 27 29 7 4 3 4 2 0 2 0 nosym
C    1.1243415    0.0099154   -0.7919009  
C    0.7474086    0.0234032   -2.1148547  
C   -0.6787371    0.0234950   -2.1414700  
C   -1.1201741    0.0099356   -0.7935548  
N    0.0000000    0.0000000    0.0000000  
C   -2.4730813    0.0065397   -0.4408236  
C   -3.3971949    0.0173298   -1.4675053  
O   -4.7313511    0.0149489   -1.1793459  
C   -2.9763635    0.0305536   -2.8186319  
O   -4.0166455    0.0397857   -3.7247614  
C   -1.6418548    0.0336378   -3.1673479  
H    1.4178728    0.0310000   -2.9571213  
H   -2.8160170   -0.0039188    0.5845970  
H   -5.1938805    0.0234411   -2.0274374  
H   -3.6464652    0.0484778   -4.6127335  
H    2.1062467    0.0051380   -0.3505414  
C   -0.1937289   -0.6738798   -5.1271222  
C   -0.0849058   -0.4442805   -6.4611075  
C   -1.1307533    0.4862721   -6.8148172  
C   -1.8630305    0.7821277   -5.5686112  
N   -1.2456309    0.0472573   -4.5828763  
C   -2.9255824    1.6218868   -5.4820504  
C   -3.3783231    2.2779477   -6.6974291  
O   -4.3264437    3.0517092   -6.7231429  
C   -2.6177619    1.9791132   -8.0286125  
O   -2.9900136    2.5253764   -9.0583144  
C   -1.4863909    1.0556436   -7.9961198  
H    0.6446254   -0.8775064   -7.1219503  
H   -3.4485921    1.8252439   -4.5579203  
H   -0.9650093    0.8542341   -8.9220353  
H    0.4058895   -1.3093928   -4.4958768  
C    0.0000000    0.0000000    1.4700000  
C    1.0662921    0.0000102    2.3034270  
C    0.4961870   -0.0000064    3.6418889  
C   -0.9663858    0.0000850    3.4240247  
N   -1.2632773    0.0000084    2.1528658  
C   -1.8985362    0.0000517    4.5177257  
C   -1.3925775   -0.0004564    5.7720543  
O   -2.1456383   -0.0005410    6.8851312  
C    0.0786232   -0.0009323    6.0245000  
O    0.4683759   -0.0012588    7.1921102  
C    1.0143166   -0.0008442    4.8859032  
H    2.1107198   -0.0000632    2.0421868  
H   -2.9622183    0.0003270    4.3293377  
H   -1.5042274   -0.0009692    7.6184419  
H    2.0724152   -0.0013148    5.1109744  
