46
31A 32A 41B 5A 16A 17B 26B 45 42 44 13 30 27 29 2 3 4 7 2 3 4 3 1 3 0 nosym
C    3.3041269    0.0001177   -1.5420434  
C    2.5845370   -0.0004780   -0.3695856  
C    1.2040006   -0.0000007   -0.7283591  
C    1.1422372    0.0006038   -2.1454374  
N    2.4348634    0.0026110   -2.6077469  
C   -0.0655187    0.0008799   -2.8497915  
C   -1.2321772    0.0002326   -2.1101397  
O   -2.4392820    0.0001149   -2.7472517  
C   -1.1911209   -0.0000007   -0.6955263  
O   -2.4371523   -0.0002319   -0.1032858  
C    0.0000000    0.0000000    0.0000000  
H    3.0031535   -0.0000661    0.6222578  
H    2.7054623   -0.0071098   -3.5745264  
H   -0.1193555    0.0014846   -3.9297470  
H   -3.1132995   -0.0000646   -2.0551782  
H   -2.3200286   -0.0004070    0.8516413  
C    6.5771494   -0.0035573    1.3345533  
C    7.6645487   -0.0027623    0.5288600  
C    7.1290976   -0.0009890   -0.8238371  
C    5.6614000   -0.0010505   -0.6437065  
N    5.3318749   -0.0024720    0.6193853  
C    4.7577216    0.0005129   -1.7610467  
C    5.2958115    0.0024560   -3.0019295  
O    4.5716623    0.0040580   -4.1340273  
C    6.7730249    0.0029427   -3.2164075  
O    7.1927148    0.0046216   -4.3735932  
C    7.6790893    0.0012688   -2.0540953  
H    8.7019030   -0.0032210    0.8169074  
H    5.2317432    0.0052551   -4.8505775  
H    8.7426330    0.0018006   -2.2518453  
H    6.5493804   -0.0048794    2.4126071  
C    2.5528530    2.1414826    2.8079335  
C    2.0663498    1.7338582    4.0032312  
C    0.9804344    0.8229586    3.6752840  
C    0.9495562    0.7966882    2.1971295  
N    1.8690446    1.5676019    1.6831036  
C    0.0000000    0.0000000    1.4700000  
C   -0.8785127   -0.7372425    2.1869543  
O   -1.8187535   -1.5261249    1.6395491  
C   -0.8723269   -0.7321790    3.6796354  
O   -1.7010379   -1.4274584    4.2670412  
C    0.1115397    0.0933559    4.4024240  
H    2.4028853    2.0163452    4.9860947  
H   -2.2861435   -1.9184361    2.3990168  
H    0.0832434    0.0693689    5.4835595  
H    3.3664920    2.8238276    2.6198634  
