44
29A 30A 39B 0A 14A 15B 24A 43 40 42 12 28 25 27 2 3 4 2 2 3 4 3 1 3 0 nosym
C    3.2798084    0.0005856   -1.4499649  
C    2.5571145    0.0005564   -2.5996554  
C    1.1637435    0.0001547   -2.2210363  
C    1.1336965   -0.0000200   -0.7459473  
N    2.4483513   -0.0001428   -0.3402723  
C    0.0000000    0.0000000    0.0000000  
C   -1.2757369   -0.0000187   -0.6964416  
O   -2.3524596   -0.0000640   -0.1142313  
C   -1.2676495   -0.0000874   -2.2584083  
O   -2.3355762   -0.0004102   -2.8557296  
C    0.0181561    0.0001758   -2.9516298  
H    2.9547353    0.0006073   -3.5989108  
H    4.3498552    0.0008611   -1.3200024  
H    2.7563627    0.0012824    0.6148060  
C    2.5654234   -2.1380211   -5.7671297  
C    2.0750620   -1.7307734   -6.9609785  
C    0.9890578   -0.8211466   -6.6298092  
C    0.9623553   -0.7951241   -5.1515693  
N    1.8841711   -1.5650742   -4.6402746  
C    0.0139739    0.0003876   -4.4216236  
C   -0.8674057    0.7367420   -5.1359671  
O   -1.8069742    1.5244845   -4.5857736  
C   -0.8654609    0.7319006   -6.6286609  
O   -1.6966231    1.4263295   -7.2136043  
C    0.1172757   -0.0924197   -7.3543669  
H    2.4091182   -2.0127391   -7.9448369  
H   -2.2769652    1.9163776   -5.3438506  
H    0.0858767   -0.0683088   -8.4354137  
H    3.3803629   -2.8194749   -5.5814758  
C    2.5528530    2.1414826    2.8079335  
C    2.0663498    1.7338582    4.0032312  
C    0.9804344    0.8229586    3.6752840  
C    0.9495562    0.7966882    2.1971295  
N    1.8690446    1.5676019    1.6831036  
C    0.0000000    0.0000000    1.4700000  
C   -0.8785127   -0.7372425    2.1869543  
O   -1.8187535   -1.5261249    1.6395491  
C   -0.8723269   -0.7321790    3.6796354  
O   -1.7010379   -1.4274584    4.2670412  
C    0.1115397    0.0933559    4.4024240  
H    2.4028853    2.0163452    4.9860947  
H   -2.2861435   -1.9184361    2.3990168  
H    0.0832434    0.0693689    5.4835595  
H    3.3664920    2.8238276    2.6198634  
