46
36B 16A 21B 42 30 28 7 2 7 1 0 2 0 nosym
C    3.3003551    0.0005277   -1.4738980  
C    2.5232820    0.0003498   -2.6090740  
C    1.1623207   -0.0001318   -2.1820099  
C    1.1711887    0.0000584   -0.7636138  
N    2.4852302   -0.0014919   -0.3662352  
C    0.0000000    0.0000000    0.0000000  
C   -1.2020382    0.0000521   -0.6806482  
O   -2.3759248    0.0003494    0.0157741  
C   -1.2314651   -0.0005111   -2.0955511  
O   -2.5054381   -0.0008036   -2.6250184  
C   -0.0764509   -0.0007271   -2.8495194  
H    2.8036266    0.0088182    0.5858670  
H   -3.0835635    0.0000348   -0.6418822  
H   -2.4360036   -0.0011526   -3.5845927  
H   -0.1304085   -0.0013419   -3.9319086  
H    4.3715552    0.0004895   -1.3667123  
C    5.8650070   -2.0107117   -4.7661431  
C    5.0212872   -1.6285495   -3.7793965  
C    4.0882054   -0.7127453   -4.4174879  
C    4.5276495   -0.6558963   -5.8282465  
N    5.5687229   -1.4147710   -6.0386388  
C    3.8513815    0.1541354   -6.8037450  
C    2.7843670    0.8743251   -6.3888450  
O    2.0599303    1.6727809   -7.1911550  
C    2.3162653    0.8377518   -4.9719104  
O    1.3381225    1.5190135   -4.6647627  
C    3.0267445   -0.0008950   -3.9901692  
H    5.0308651   -1.9308546   -2.7461517  
H    4.1943324    0.1768404   -7.8278437  
H    1.3721616    2.0479796   -6.6120578  
H    6.7017021   -2.6878027   -4.6993405  
C    0.8175213    0.6860729    2.3021913  
C    0.0000000    0.0000000    1.4700000  
C   -0.8887526   -0.7456559    2.3478473  
C   -0.4549825   -0.3816753    3.7138435  
N    0.5448156    0.4573574    3.6934124  
C   -1.0945674   -0.9182058    4.8835240  
C   -2.1210866   -1.7789155    4.6970523  
O   -2.8083856   -2.3554314    5.6976972  
C   -2.5824069   -2.1655116    3.3310774  
O   -3.5227682   -2.9541547    3.2362962  
C   -1.9100805   -1.6015804    2.1470656  
H   -0.7567140   -0.6349833    5.8697035  
H   -3.4728268   -2.9124471    5.2533954  
H   -2.2742832   -1.9066565    1.1752040  
H    1.6189533    1.3585343    2.0405121  
