48
38B 16A 20A 21B 44 32 28 29 7 2 1 7 1 0 3 0 nosym
C    1.1188644    0.0008216   -0.8003803  
C    0.0000000    0.0000000    0.0000000  
C   -1.1323861    0.0008904   -0.8673527  
C   -0.6382659    0.0019681   -2.1969278  
N    0.7324021    0.0038477   -2.1202237  
C   -1.4770909    0.0027323   -3.3154808  
C   -2.8395470    0.0020956   -3.0876857  
O   -3.7039197    0.0024441   -4.1440352  
C   -3.3517867    0.0013945   -1.7684331  
O   -4.7300488    0.0012387   -1.7073126  
C   -2.5248543    0.0009134   -0.6644818  
H    1.3576318   -0.0056175   -2.9057039  
H   -4.5940027    0.0021847   -3.7685134  
H   -4.9934597    0.0007284   -0.7819917  
H   -2.9462579    0.0005617    0.3339654  
H    2.1619892    0.0009343   -0.5342064  
C    1.9333055   -2.1182752   -5.2802155  
C    1.0133380   -1.6572499   -4.3672083  
C    0.1426184   -0.7691972   -5.0656421  
C    0.5838551   -0.7277676   -6.4130550  
N    1.6739992   -1.5566770   -6.5085136  
C   -0.0442377    0.0493814   -7.3909746  
C   -1.1378606    0.7981163   -7.0016644  
O   -1.7887528    1.5744853   -7.9163248  
C   -1.5929370    0.7702836   -5.6619076  
O   -2.6929641    1.5704875   -5.4317836  
C   -0.9736289    0.0040466   -4.6965764  
H    0.9752616   -1.9268945   -3.3256539  
H    2.1940557   -1.7371921   -7.3481187  
H    0.2872438    0.0854148   -8.4195773  
H   -2.5111329    2.0069667   -7.4426250  
H   -2.9358032    1.4942156   -4.5039822  
H    2.7547977   -2.8021606   -5.1521117  
C    0.8175213    0.6860729    2.3021913  
C    0.0000000    0.0000000    1.4700000  
C   -0.8887526   -0.7456559    2.3478473  
C   -0.4549825   -0.3816753    3.7138435  
N    0.5448156    0.4573574    3.6934124  
C   -1.0945674   -0.9182058    4.8835240  
C   -2.1210866   -1.7789155    4.6970523  
O   -2.8083856   -2.3554314    5.6976972  
C   -2.5824069   -2.1655116    3.3310774  
O   -3.5227682   -2.9541547    3.2362962  
C   -1.9100805   -1.6015804    2.1470656  
H   -0.7567140   -0.6349833    5.8697035  
H   -3.4728268   -2.9124471    5.2533954  
H   -2.2742832   -1.9066565    1.1752040  
H    1.6189533    1.3585343    2.0405121  
