44
29A 34B 14A 18A 19B 43 41 27 28 26 2 7 2 1 7 2 0 3 0 nosym
C    1.1319247    0.0015655   -0.8009268  
C    0.7969912    0.0034942   -2.1169401  
C   -0.6453342    0.0035709   -2.1842667  
C   -1.1266836    0.0015433   -0.7896023  
N    0.0000000    0.0000000    0.0000000  
C   -2.4346131    0.0013964   -0.4276290  
C   -3.4350113    0.0031409   -1.4820177  
O   -4.6384612    0.0030974   -1.2583907  
C   -2.9478964    0.0050505   -2.9661068  
O   -3.7809385    0.0062217   -3.8623768  
C   -1.5113830    0.0053089   -3.2312121  
H   -2.7664564    0.0000233    0.6013452  
H   -1.1823538    0.0068406   -4.2614846  
H    2.1104315    0.0009390   -0.3488059  
C    4.6221899   -2.0851346   -2.8253994  
C    3.4630781   -1.6242780   -2.2886070  
C    2.8772250   -0.7284924   -3.2577199  
C    3.7966155   -0.7051039   -4.4113942  
N    4.8342962   -1.5478476   -4.0859840  
C    3.5979651    0.0246508   -5.5382043  
C    2.3987171    0.8417381   -5.6201041  
O    2.1298749    1.5345289   -6.5927630  
C    1.4112263    0.8323994   -4.4099058  
O    0.3983790    1.5165849   -4.4672756  
C    1.7334690    0.0049245   -3.2500365  
H    3.0641038   -1.8822524   -1.3237848  
H    4.2848306    0.0275577   -6.3731400  
H    5.3394034   -2.7719014   -2.4060595  
H    5.6230774   -1.7440970   -4.6745054  
C    2.3971438    2.0127888    3.1728260  
C    1.9431056    1.6308205    1.9564670  
C    0.8496017    0.7127664    2.2356185  
C    0.7794028    0.6545384    3.7115134  
N    1.6840587    1.4146091    4.2663826  
C   -0.1885723   -0.1578550    4.3957118  
C   -1.0476298   -0.8789867    3.6398520  
O   -2.0015663   -1.6796266    4.1448486  
C   -1.0022026   -0.8410666    2.1483229  
O   -1.8147390   -1.5232959    1.5241687  
C    0.0000000    0.0000000    1.4700000  
H    2.3054237    1.9346118    0.9892483  
H   -0.2170646   -0.1815267    5.4753125  
H   -2.4487139   -2.0549881    3.3649027  
H    3.2048689    2.6911772    3.3971983  
