44
34B 39B 0A 14B 19A 41 43 12 28 26 7 4 2 2 7 2 1 2 0 nosym
C    3.2798084    0.0005856   -1.4499649  
C    2.5571145    0.0005564   -2.5996554  
C    1.1637435    0.0001547   -2.2210363  
C    1.1336965   -0.0000200   -0.7459473  
N    2.4483513   -0.0001428   -0.3402723  
C    0.0000000    0.0000000    0.0000000  
C   -1.2757369   -0.0000187   -0.6964416  
O   -2.3524596   -0.0000640   -0.1142313  
C   -1.2676495   -0.0000874   -2.2584083  
O   -2.3355762   -0.0004102   -2.8557296  
C    0.0181561    0.0001758   -2.9516298  
H    2.9547353    0.0006073   -3.5989108  
H    4.3498552    0.0008611   -1.3200024  
H    2.7563627    0.0012824    0.6148060  
C    2.4107290   -2.0068244   -6.1315651  
C    1.9593059   -1.6260411   -4.9138619  
C    0.8629753   -0.7103788   -5.1897634  
C    0.7884487   -0.6520943   -6.6654434  
N    1.6932088   -1.4100728   -7.2229986  
C   -0.1832714    0.1582450   -7.3467637  
C   -1.0417749    0.8773570   -6.5883547  
O   -1.9989207    1.6759482   -7.0905154  
C   -0.9920204    0.8393230   -5.0969662  
O   -1.8042914    1.5196553   -4.4704006  
C    0.0139739    0.0003876   -4.4216236  
H    2.3250481   -1.9291660   -3.9477233  
H   -0.2148875    0.1820089   -8.4262755  
H   -2.4446802    2.0502027   -6.3092442  
H    3.2193177   -2.6833840   -6.3583359  
C    0.0000000    0.0000000    1.4700000  
C    1.0662921    0.0000102    2.3034270  
C    0.4961870   -0.0000064    3.6418889  
C   -0.9663858    0.0000850    3.4240247  
N   -1.2632773    0.0000084    2.1528658  
C   -1.8985362    0.0000517    4.5177257  
C   -1.3925775   -0.0004564    5.7720543  
O   -2.1456383   -0.0005410    6.8851312  
C    0.0786232   -0.0009323    6.0245000  
O    0.4683759   -0.0012588    7.1921102  
C    1.0143166   -0.0008442    4.8859032  
H    2.1107198   -0.0000632    2.0421868  
H   -2.9622183    0.0003270    4.3293377  
H   -1.5042274   -0.0009692    7.6184419  
H    2.0724152   -0.0013148    5.1109744  
