44
34B 39B 14A 15A 24B 41 43 27 25 26 7 4 2 3 4 2 0 3 0 nosym
C    1.0965514    0.0001359   -0.8010305  
C    0.0000000    0.0000000    0.0000000  
C   -1.1546565    0.0001470   -0.8669508  
C   -0.6372019    0.0003521   -2.2486278  
N    0.7342868    0.0007339   -2.1395011  
C   -1.4147745    0.0001355   -3.3608712  
C   -2.8576054   -0.0001045   -3.1854454  
O   -3.6427786   -0.0002490   -4.1244897  
C   -3.4275844   -0.0000724   -1.7311659  
O   -4.6406828    0.0000334   -1.5710047  
C   -2.4891866   -0.0001090   -0.6116741  
H   -1.0150455    0.0001619   -4.3654242  
H   -2.8919121   -0.0002919    0.3920869  
H    2.1388271    0.0000663   -0.5261648  
C    4.5298619   -2.1105786   -2.7870405  
C    4.8358775   -1.6476825   -4.0264584  
C    3.7723829   -0.7519984   -4.4157721  
C    2.8148495   -0.7308469   -3.2935098  
N    3.3319989   -1.5752939   -2.3383370  
C    1.6707637   -0.0012341   -3.2725974  
C    1.3617412    0.8177037   -4.4329340  
O    0.3555476    1.5104316   -4.5104134  
C    2.3615441    0.8103623   -5.6329950  
O    2.1118338    1.4956455   -6.6154880  
C    3.5619260   -0.0167196   -5.5388088  
H    5.7070847   -1.9045225   -4.6023443  
H    4.2491888   -0.0160707   -6.3739097  
H    5.0785343   -2.7978860   -2.1637773  
H    2.9059921   -1.7708747   -1.4510303  
C    0.0000000    0.0000000    1.4700000  
C    1.0662921    0.0000102    2.3034270  
C    0.4961870   -0.0000064    3.6418889  
C   -0.9663858    0.0000850    3.4240247  
N   -1.2632773    0.0000084    2.1528658  
C   -1.8985362    0.0000517    4.5177257  
C   -1.3925775   -0.0004564    5.7720543  
O   -2.1456383   -0.0005410    6.8851312  
C    0.0786232   -0.0009323    6.0245000  
O    0.4683759   -0.0012588    7.1921102  
C    1.0143166   -0.0008442    4.8859032  
H    2.1107198   -0.0000632    2.0421868  
H   -2.9622183    0.0003270    4.3293377  
H   -1.5042274   -0.0009692    7.6184419  
H    2.0724152   -0.0013148    5.1109744  
