44
29A 30A 39B 14A 18A 19B 43 40 42 27 28 26 2 3 4 2 1 7 3 0 3 0 nosym
C    1.0965514    0.0001358   -0.8010308  
C    0.0000000    0.0000000    0.0000000  
C   -1.1546563    0.0001470   -0.8669511  
C   -0.6372017    0.0003520   -2.2486280  
N    0.7342868    0.0007338   -2.1395013  
C   -1.4147744    0.0001354   -3.3608714  
C   -2.8576054   -0.0001047   -3.1854457  
O   -3.6427786   -0.0002491   -4.1244901  
C   -3.4275843   -0.0000725   -1.7311661  
O   -4.6406831    0.0000333   -1.5710051  
C   -2.4891867   -0.0001090   -0.6116740  
H   -2.8919119   -0.0002919    0.3920869  
H    2.1388271    0.0000662   -0.5261651  
H    1.3735867   -0.0006098   -2.9130264  
C    2.0080271   -2.0907789   -5.2072019  
C    1.0696919   -1.6289495   -4.3409949  
C    0.2147978   -0.7337515   -5.0843735  
C    0.7357136   -0.7117679   -6.4645741  
N    1.8230606   -1.5546812   -6.4725587  
C    0.2009056    0.0170930   -7.4767237  
C   -0.9654725    0.8346323   -7.1873687  
O   -1.5197759    1.5266942   -8.0312283  
C   -1.5338505    0.8267775   -5.7324838  
O   -2.5153159    1.5113551   -5.4768664  
C   -0.8712833    0.0001712   -4.7267109  
H    0.9860725   -1.8859103   -3.3000374  
H    0.5983485    0.0189738   -8.4821823  
H    2.8192286   -2.7774937   -5.0275786  
H    2.3931027   -1.7517868   -7.2745859  
C    2.5528530    2.1414826    2.8079335  
C    2.0663498    1.7338582    4.0032312  
C    0.9804344    0.8229586    3.6752840  
C    0.9495562    0.7966882    2.1971295  
N    1.8690446    1.5676019    1.6831036  
C    0.0000000    0.0000000    1.4700000  
C   -0.8785127   -0.7372425    2.1869543  
O   -1.8187535   -1.5261249    1.6395491  
C   -0.8723269   -0.7321790    3.6796354  
O   -1.7010379   -1.4274584    4.2670412  
C    0.1115397    0.0933559    4.4024240  
H    2.4028853    2.0163452    4.9860947  
H   -2.2861435   -1.9184361    2.3990168  
H    0.0832434    0.0693689    5.4835595  
H    3.3664920    2.8238276    2.6198634  
