46
31A 32A 41B 0B 21A 45 42 44 15 27 2 3 4 2 7 3 1 1 0 nosym
C    3.3003543    0.0005277   -1.4738990  
C    2.5232811    0.0003499   -2.6090749  
C    1.1623199   -0.0001317   -2.1820104  
C    1.1711881    0.0000584   -0.7636144  
N    2.4852300   -0.0014918   -0.3662360  
C    0.0000000    0.0000000    0.0000000  
C   -1.2020384    0.0000520   -0.6806478  
O   -2.3759250    0.0003494    0.0157748  
C   -1.2314658   -0.0005111   -2.0955509  
O   -2.5054391   -0.0008036   -2.6250178  
C   -0.0764518   -0.0007271   -2.8495195  
H    2.8919951   -0.0005617   -3.6205306  
H    2.8036264    0.0088181    0.5858657  
H   -3.0835640    0.0000348   -0.6418817  
H   -2.4360050   -0.0011525   -3.5845919  
H    4.3715549    0.0004896   -1.3667139  
C    0.6257859   -0.6877060   -5.1891871  
C   -0.1496418   -0.0015610   -4.3176961  
C   -1.0813845    0.7431621   -5.1506083  
C   -0.7159761    0.3786188   -6.5363100  
N    0.2840327   -0.4599132   -6.5652287  
C   -1.4132822    0.9141727   -7.6729857  
C   -2.4296887    1.7744859   -7.4361029  
O   -3.1662544    2.3500980   -8.4015988  
C   -2.8226257    2.1616313   -6.0490627  
O   -3.7575091    2.9498683   -5.9080070  
C   -2.0918911    1.5987008   -4.8996888  
H   -1.1248026    0.6305561   -8.6746097  
H   -3.8080376    2.9070407   -7.9250683  
H   -2.4074116    1.9041500   -3.9110645  
H    1.4396001   -1.3596269   -4.9673702  
C    2.5528530    2.1414826    2.8079335  
C    2.0663498    1.7338582    4.0032312  
C    0.9804344    0.8229586    3.6752840  
C    0.9495562    0.7966882    2.1971295  
N    1.8690446    1.5676019    1.6831036  
C    0.0000000    0.0000000    1.4700000  
C   -0.8785127   -0.7372425    2.1869543  
O   -1.8187535   -1.5261249    1.6395491  
C   -0.8723269   -0.7321790    3.6796354  
O   -1.7010379   -1.4274584    4.2670412  
C    0.1115397    0.0933559    4.4024240  
H    2.4028853    2.0163452    4.9860947  
H   -2.2861435   -1.9184361    2.3990168  
H    0.0832434    0.0693689    5.4835595  
H    3.3664920    2.8238276    2.6198634  
