46
31A 36B 0A 16A 20B 21A 45 43 15 29 30 28 2 7 2 2 1 7 2 1 3 0 nosym
C    3.3003543    0.0005277   -1.4738990  
C    2.5232811    0.0003499   -2.6090749  
C    1.1623199   -0.0001317   -2.1820104  
C    1.1711881    0.0000584   -0.7636144  
N    2.4852300   -0.0014918   -0.3662360  
C    0.0000000    0.0000000    0.0000000  
C   -1.2020384    0.0000520   -0.6806478  
O   -2.3759250    0.0003494    0.0157748  
C   -1.2314658   -0.0005111   -2.0955509  
O   -2.5054391   -0.0008036   -2.6250178  
C   -0.0764518   -0.0007271   -2.8495195  
H    2.8919951   -0.0005617   -3.6205306  
H    2.8036264    0.0088181    0.5858657  
H   -3.0835640    0.0000348   -0.6418817  
H   -2.4360050   -0.0011525   -3.5845919  
H    4.3715549    0.0004896   -1.3667139  
C    2.2697429   -2.0933928   -5.9499307  
C    1.7761645   -1.6308846   -4.7724161  
C    0.6896456   -0.7359135   -5.0938792  
C    0.5899533   -0.7148028   -6.5657508  
N    1.5756957   -1.5579533   -7.0243348  
C   -0.3170964    0.0136144   -7.2645884  
C   -1.2578067    0.8315631   -6.5172207  
O   -2.1126590    1.5232782   -7.0548622  
C   -1.1702525    0.8246325   -4.9577043  
O   -1.9567841    1.5095612   -4.3177808  
C   -0.1496418   -0.0015610   -4.3176961  
H    2.1326579   -1.8872533   -3.7906824  
H   -0.3733822    0.0148555   -8.3442836  
H    3.0822586   -2.7801823   -6.1232170  
H    1.7609405   -1.7556234   -7.9905942  
C    2.3971438    2.0127888    3.1728260  
C    1.9431056    1.6308205    1.9564670  
C    0.8496017    0.7127664    2.2356185  
C    0.7794028    0.6545384    3.7115134  
N    1.6840587    1.4146091    4.2663826  
C   -0.1885723   -0.1578550    4.3957118  
C   -1.0476298   -0.8789867    3.6398520  
O   -2.0015663   -1.6796266    4.1448486  
C   -1.0022026   -0.8410666    2.1483229  
O   -1.8147390   -1.5232959    1.5241687  
C    0.0000000    0.0000000    1.4700000  
H    2.3054237    1.9346118    0.9892483  
H   -0.2170646   -0.1815267    5.4753125  
H   -2.4487139   -2.0549881    3.3649027  
H    3.2048689    2.6911772    3.3971983  
