48
38B 43B 0A 16A 20B 21A 45 47 15 32 28 29 7 4 2 2 1 7 2 1 3 0 nosym
C    3.3041273    0.0001178   -1.5420431  
C    2.5845371   -0.0004779   -0.3695856  
C    1.2040005   -0.0000007   -0.7283590  
C    1.1422373    0.0006038   -2.1454373  
N    2.4348641    0.0026111   -2.6077466  
C   -0.0655181    0.0008799   -2.8497918  
C   -1.2321768    0.0002325   -2.1101399  
O   -2.4392816    0.0001148   -2.7472520  
C   -1.1911210   -0.0000007   -0.6955263  
O   -2.4371525   -0.0002320   -0.1032863  
C    0.0000000    0.0000000    0.0000000  
H    3.0031536   -0.0000660    0.6222581  
H    2.7054629   -0.0071097   -3.5745261  
H   -3.1132988   -0.0000648   -2.0551785  
H   -2.3200280   -0.0004071    0.8516411  
H    4.3686620    0.0004072   -1.7024293  
C    2.3129718   -2.1206344   -5.9853338  
C    1.8203211   -1.6593257   -4.7866021  
C    0.7463513   -0.7716029   -5.0917858  
C    0.6289216   -0.7306571   -6.5047474  
N    1.5963346   -1.5595247   -7.0163215  
C   -0.3301680    0.0460726   -7.1617304  
C   -1.1865066    0.7948779   -6.3780515  
O   -2.1420032    1.5708502   -6.9678875  
C   -1.0848070    0.7675251   -4.9667661  
O   -2.0089557    1.5677381   -4.3272724  
C   -0.1387082    0.0017019   -4.3179684  
H    2.1903016   -1.9285746   -3.8121217  
H    1.7490277   -1.7403236   -7.9920150  
H   -0.4247470    0.0817362   -8.2382919  
H   -2.6234316    2.0034608   -6.2507128  
H   -1.8718972    1.4918037   -3.3780343  
H    3.1197748   -2.8044118   -6.1865218  
C    0.0000000    0.0000000    1.4700000  
C    1.0662921    0.0000102    2.3034270  
C    0.4961870   -0.0000064    3.6418889  
C   -0.9663858    0.0000850    3.4240247  
N   -1.2632773    0.0000084    2.1528658  
C   -1.8985362    0.0000517    4.5177257  
C   -1.3925775   -0.0004564    5.7720543  
O   -2.1456383   -0.0005410    6.8851312  
C    0.0786232   -0.0009323    6.0245000  
O    0.4683759   -0.0012588    7.1921102  
C    1.0143166   -0.0008442    4.8859032  
H    2.1107198   -0.0000632    2.0421868  
H   -2.9622183    0.0003270    4.3293377  
H   -1.5042274   -0.0009692    7.6184419  
H    2.0724152   -0.0013148    5.1109744  
