44
29A 30A 39B 10A 14B 19B 43 40 42 13 28 26 2 3 4 4 2 7 3 1 2 0 nosym
C    3.3321175    0.0004716   -1.3379333  
C    2.6974185    0.0000118   -2.5332309  
C    1.2800442   -0.0002116   -2.2052838  
C    1.2395036    0.0000644   -0.7271294  
N    2.4394064    0.0005460   -0.2131035  
C    0.0000000    0.0000000    0.0000000  
C   -1.1468696    0.0000635   -0.7169542  
O   -2.3742199    0.0000074   -0.1695490  
C   -1.1388767    0.0001608   -2.2096353  
O   -2.2206230    0.0000906   -2.7970411  
C    0.1454525    0.0001818   -2.9324239  
H    3.1367990   -0.0000649   -3.5160943  
H   -2.9844341    0.0001027   -0.9290168  
H    0.1083581    0.0003684   -4.0135593  
C    7.0022001   -0.0017279   -3.8667534  
C    5.7010054   -0.0020356   -3.4946347  
C    5.7268795   -0.0004765   -2.0400463  
C    7.1642518    0.0005577   -1.6928517  
N    7.9166791   -0.0000886   -2.7595491  
C    7.6175802    0.0022642   -0.3291888  
C    6.6777000    0.0032971    0.6434149  
O    6.9577655    0.0049113    1.9577974  
C    5.2193468    0.0026666    0.3250324  
O    4.4197295    0.0035536    1.2608912  
C    4.7795908    0.0008674   -1.0815721  
H    4.8310672   -0.0030890   -4.1288923  
H    8.6741773    0.0027842   -0.1044372  
H    6.0879574    0.0053405    2.3966443  
H    7.4070888   -0.0025641   -4.8662723  
C    2.5528530    2.1414826    2.8079335  
C    2.0663498    1.7338582    4.0032312  
C    0.9804344    0.8229586    3.6752840  
C    0.9495562    0.7966882    2.1971295  
N    1.8690446    1.5676019    1.6831036  
C    0.0000000    0.0000000    1.4700000  
C   -0.8785127   -0.7372425    2.1869543  
O   -1.8187535   -1.5261249    1.6395491  
C   -0.8723269   -0.7321790    3.6796354  
O   -1.7010379   -1.4274584    4.2670412  
C    0.1115397    0.0933559    4.4024240  
H    2.4028853    2.0163452    4.9860947  
H   -2.2861435   -1.9184361    2.3990168  
H    0.0832434    0.0693689    5.4835595  
H    3.3664920    2.8238276    2.6198634  
