44
29A 34B 14A 19B 43 41 28 26 2 7 2 7 2 0 2 0 nosym
C    1.0965514    0.0001359   -0.8010305  
C    0.0000000    0.0000000    0.0000000  
C   -1.1546565    0.0001470   -0.8669508  
C   -0.6372019    0.0003521   -2.2486278  
N    0.7342868    0.0007339   -2.1395011  
C   -1.4147745    0.0001355   -3.3608712  
C   -2.8576054   -0.0001045   -3.1854454  
O   -3.6427786   -0.0002490   -4.1244897  
C   -3.4275844   -0.0000724   -1.7311659  
O   -4.6406828    0.0000334   -1.5710047  
C   -2.4891866   -0.0001090   -0.6116741  
H   -1.0150455    0.0001619   -4.3654242  
H   -2.8919121   -0.0002919    0.3920869  
H    2.1388271    0.0000663   -0.5261648  
C    4.6035257   -2.0133274   -3.0543729  
C    3.4786145   -1.6302940   -2.4067310  
C    2.8134669   -0.7139710   -3.3202027  
C    3.6995827   -0.6578061   -4.5026692  
N    4.7504679   -1.4174967   -4.3526674  
C    3.3892446    0.1524699   -5.6481954  
C    2.2454688    0.8735471   -5.6141514  
O    1.8317906    1.6723268   -6.6125815  
C    1.3302961    0.8376803   -4.4354512  
O    0.3062879    1.5197367   -4.4732205  
C    1.6707637   -0.0012341   -3.2725974  
H    3.1417502   -1.9323407   -1.4298143  
H    4.0550495    0.1746607   -6.4985610  
H    0.9902126    2.0481775   -6.2969311  
H    5.3691403   -2.6910135   -2.7115182  
C    2.3971438    2.0127888    3.1728260  
C    1.9431056    1.6308205    1.9564670  
C    0.8496017    0.7127664    2.2356185  
C    0.7794028    0.6545384    3.7115134  
N    1.6840587    1.4146091    4.2663826  
C   -0.1885723   -0.1578550    4.3957118  
C   -1.0476298   -0.8789867    3.6398520  
O   -2.0015663   -1.6796266    4.1448486  
C   -1.0022026   -0.8410666    2.1483229  
O   -1.8147390   -1.5232959    1.5241687  
C    0.0000000    0.0000000    1.4700000  
H    2.3054237    1.9346118    0.9892483  
H   -0.2170646   -0.1815267    5.4753125  
H   -2.4487139   -2.0549881    3.3649027  
H    3.2048689    2.6911772    3.3971983  
