44
34B 14A 18A 19B 40 27 28 26 7 2 1 7 1 0 3 0 nosym
C    1.1319246    0.0015654   -0.8009268  
C    0.7969913    0.0034942   -2.1169400  
C   -0.6453341    0.0035709   -2.1842669  
C   -1.1266834    0.0015432   -0.7896024  
N    0.0000000    0.0000000    0.0000000  
C   -2.4346131    0.0013964   -0.4276289  
C   -3.4350115    0.0031407   -1.4820178  
O   -4.6384615    0.0030972   -1.2583910  
C   -2.9478963    0.0050503   -2.9661070  
O   -3.7809385    0.0062215   -3.8623769  
C   -1.5113827    0.0053087   -3.2312121  
H    1.4821233    0.0045405   -2.9459192  
H   -2.7664565    0.0000231    0.6013450  
H    2.1104317    0.0009391   -0.3488059  
C    1.7761492   -2.0808209   -5.3136694  
C    0.9000054   -1.6207348   -4.3837403  
C   -0.0051020   -0.7252875   -5.0647616  
C    0.4185727   -0.7012575   -6.4778124  
N    1.5032932   -1.5433446   -6.5624324  
C   -0.1858006    0.0284155   -7.4494166  
C   -1.3297805    0.8447318   -7.0786433  
O   -1.9418763    1.5373893   -7.8810554  
C   -1.7956192    0.8347055   -5.5877714  
O   -2.7573910    1.5182394   -5.2636777  
C   -1.0641742    0.0073906   -4.6315334  
H    0.8891374   -1.8790068   -3.3398099  
H    0.1407692    0.0318005   -8.4800723  
H    2.5983333   -2.7671419   -5.1917408  
H    2.0163217   -1.7390603   -7.4023992  
C    0.8175213    0.6860729    2.3021913  
C    0.0000000    0.0000000    1.4700000  
C   -0.8887526   -0.7456559    2.3478473  
C   -0.4549825   -0.3816753    3.7138435  
N    0.5448156    0.4573574    3.6934124  
C   -1.0945674   -0.9182058    4.8835240  
C   -2.1210866   -1.7789155    4.6970523  
O   -2.8083856   -2.3554314    5.6976972  
C   -2.5824069   -2.1655116    3.3310774  
O   -3.5227682   -2.9541547    3.2362962  
C   -1.9100805   -1.6015804    2.1470656  
H   -0.7567140   -0.6349833    5.8697035  
H   -3.4728268   -2.9124471    5.2533954  
H   -2.2742832   -1.9066565    1.1752040  
H    1.6189533    1.3585343    2.0405121  
