44
34B 14A 15A 24B 40 28 25 27 7 2 3 4 1 0 3 0 nosym
C    3.2798086    0.0005858   -1.4499646  
C    2.5571145    0.0005567   -2.5996553  
C    1.1637436    0.0001549   -2.2210360  
C    1.1336963   -0.0000199   -0.7459471  
N    2.4483514   -0.0001427   -0.3402720  
C    0.0000000    0.0000000    0.0000000  
C   -1.2757367   -0.0000186   -0.6964417  
O   -2.3524597   -0.0000640   -0.1142315  
C   -1.2676494   -0.0000872   -2.2584082  
O   -2.3355761   -0.0004100   -2.8557297  
C    0.0181560    0.0001762   -2.9516297  
H    0.0150792    0.0003321   -4.0331631  
H    4.3498549    0.0008613   -1.3200019  
H    2.7563626    0.0012824    0.6148062  
C    5.9694210   -2.1380309   -4.2640191  
C    5.9589012   -1.7308761   -5.5546363  
C    4.8277513   -0.8211667   -5.6517371  
C    4.2525281   -0.7949999   -4.2897465  
N    4.9176048   -1.5649434   -3.4719145  
C    3.1006058    0.0006265   -3.9654949  
C    2.5486629    0.7369527   -4.9567150  
O    1.4718516    1.5247921   -4.7960055  
C    3.1062921    0.7319668   -6.3413391  
O    2.5527682    1.4263777   -7.1937628  
C    4.2885186   -0.0924694   -6.6488624  
H    6.6352652   -2.0129523   -6.3433315  
H    1.3179707    1.9166336   -5.6746029  
H    4.6619223   -0.0684616   -7.6638619  
H    6.6565710   -2.8195046   -3.7882122  
C    0.8175213    0.6860729    2.3021913  
C    0.0000000    0.0000000    1.4700000  
C   -0.8887526   -0.7456559    2.3478473  
C   -0.4549825   -0.3816753    3.7138435  
N    0.5448156    0.4573574    3.6934124  
C   -1.0945674   -0.9182058    4.8835240  
C   -2.1210866   -1.7789155    4.6970523  
O   -2.8083856   -2.3554314    5.6976972  
C   -2.5824069   -2.1655116    3.3310774  
O   -3.5227682   -2.9541547    3.2362962  
C   -1.9100805   -1.6015804    2.1470656  
H   -0.7567140   -0.6349833    5.8697035  
H   -3.4728268   -2.9124471    5.2533954  
H   -2.2742832   -1.9066565    1.1752040  
H    1.6189533    1.3585343    2.0405121  
