46
31A 32A 41B 10A 17B 26B 45 42 44 15 27 29 2 3 4 4 3 4 3 1 2 0 nosym
C    0.0000000    0.0000000    0.0000000  
C    1.0521663   -0.0011902   -0.8862345  
C    0.4917214   -0.0011957   -2.1979134  
C   -0.9187430    0.0003148   -2.0478682  
N   -1.1833173   -0.0009412   -0.7007911  
C   -1.7951704    0.0010350   -3.1372089  
C   -1.2375842    0.0005225   -4.4010423  
O   -2.0474221    0.0015360   -5.4997574  
C    0.1673576   -0.0013567   -4.5711965  
O    0.5673515   -0.0020688   -5.8915554  
C    1.0325766   -0.0023413   -3.4969893  
H    2.0953056   -0.0030649   -0.6200564  
H   -2.0989777    0.0102372   -0.2891822  
H   -1.4634892    0.0006498   -6.2693592  
H    1.5290704   -0.0033153   -5.9180050  
H    2.1042142   -0.0039610   -3.6584459  
C   -3.9676858    0.7292803   -2.0471631  
C   -5.3027885    0.5138130   -2.1702450  
C   -5.4806691   -0.4129643   -3.2630753  
C   -4.1300714   -0.7220055   -3.7701950  
N   -3.2578657    0.0024039   -2.9908504  
C   -3.8704657   -1.5626539   -4.8034520  
C   -4.9964199   -2.2058249   -5.4600292  
O   -4.8664340   -2.9792892   -6.3997938  
C   -6.4355616   -1.8929052   -4.9396860  
O   -7.3913520   -2.4282480   -5.4847851  
C   -6.5888875   -0.9698095   -3.8179740  
H   -6.0749063    0.9540221   -1.5647168  
H   -2.8722053   -1.7757894   -5.1597655  
H   -7.5886461   -0.7586027   -3.4635752  
H   -3.4426191    1.3580890   -1.3465962  
C    3.3321173   -0.0004715    2.8079335  
C    2.6974184   -0.0000116    4.0032312  
C    1.2800439    0.0002118    3.6752840  
C    1.2395035   -0.0000644    2.1971295  
N    2.4394063   -0.0005460    1.6831036  
C    0.0000000    0.0000000    1.4700000  
C   -1.1468701   -0.0000635    2.1869543  
O   -2.3742202   -0.0000073    1.6395491  
C   -1.1388768   -0.0001607    3.6796354  
O   -2.2206231   -0.0000905    4.2670412  
C    0.1454524   -0.0001816    4.4024240  
H    3.1367986    0.0000651    4.9860947  
H   -2.9844344   -0.0001026    2.3990168  
H    0.1083576   -0.0003682    5.4835595  
H    4.3940039   -0.0007619    2.6198634  
