44
29A 34B 5B 19B 43 41 12 25 2 7 7 7 2 1 1 0 nosym
C    3.2573672   -0.0002920   -1.5109379  
C    2.5379469   -0.0001709   -0.3591960  
C    1.1435044    0.0000331   -0.7338498  
C    1.1092608   -0.0000083   -2.2088475  
N    2.4227563    0.0001909   -2.6182608  
C   -0.0265531   -0.0002524   -2.9515661  
C   -1.3003038   -0.0002640   -2.2514979  
O   -2.3786783   -0.0004133   -2.8306426  
C   -1.2877724    0.0000311   -0.6895607  
O   -2.3539956    0.0003306   -0.0892035  
C    0.0000000    0.0000000    0.0000000  
H    2.9384089   -0.0000367    0.6389238  
H   -0.0296289   -0.0004086   -4.0327230  
H    2.7280494   -0.0013407   -3.5742114  
C    5.6736570   -0.0006412   -0.7359113  
C    4.7161333   -0.0005435   -1.6923255  
C    5.4441210   -0.0008917   -2.9519022  
C    6.8695494   -0.0010680   -2.5585344  
N    7.0103282   -0.0010031   -1.2607783  
C    7.9272791   -0.0014688   -3.5313104  
C    7.5769343   -0.0020725   -4.8376764  
O    8.4592387   -0.0024904   -5.8513723  
C    6.1471287   -0.0022845   -5.2664161  
O    5.9016333   -0.0027167   -6.4726301  
C    5.0804454   -0.0018210   -4.2495039  
H    8.9603213   -0.0013833   -3.2155044  
H    7.9113466   -0.0029031   -6.6569567  
H    4.0573873   -0.0021088   -4.6010467  
H    5.5430687   -0.0004690    0.3345654  
C    2.3971438    2.0127888    3.1728260  
C    1.9431056    1.6308205    1.9564670  
C    0.8496017    0.7127664    2.2356185  
C    0.7794028    0.6545384    3.7115134  
N    1.6840587    1.4146091    4.2663826  
C   -0.1885723   -0.1578550    4.3957118  
C   -1.0476298   -0.8789867    3.6398520  
O   -2.0015663   -1.6796266    4.1448486  
C   -1.0022026   -0.8410666    2.1483229  
O   -1.8147390   -1.5232959    1.5241687  
C    0.0000000    0.0000000    1.4700000  
H    2.3054237    1.9346118    0.9892483  
H   -0.2170646   -0.1815267    5.4753125  
H   -2.4487139   -2.0549881    3.3649027  
H    3.2048689    2.6911772    3.3971983  
