44
29A 34B 14A 18A 19B 43 41 27 28 26 2 7 2 1 7 2 0 3 0 nosym
C    1.0965514    0.0001358   -0.8010308  
C    0.0000000    0.0000000    0.0000000  
C   -1.1546563    0.0001470   -0.8669511  
C   -0.6372017    0.0003520   -2.2486280  
N    0.7342868    0.0007338   -2.1395013  
C   -1.4147744    0.0001354   -3.3608714  
C   -2.8576054   -0.0001047   -3.1854457  
O   -3.6427786   -0.0002491   -4.1244901  
C   -3.4275843   -0.0000725   -1.7311661  
O   -4.6406831    0.0000333   -1.5710051  
C   -2.4891867   -0.0001090   -0.6116740  
H   -2.8919119   -0.0002919    0.3920869  
H    2.1388271    0.0000662   -0.5261651  
H    1.3735867   -0.0006098   -2.9130264  
C    2.0080271   -2.0907789   -5.2072019  
C    1.0696919   -1.6289495   -4.3409949  
C    0.2147978   -0.7337515   -5.0843735  
C    0.7357136   -0.7117679   -6.4645741  
N    1.8230606   -1.5546812   -6.4725587  
C    0.2009056    0.0170930   -7.4767237  
C   -0.9654725    0.8346323   -7.1873687  
O   -1.5197759    1.5266942   -8.0312283  
C   -1.5338505    0.8267775   -5.7324838  
O   -2.5153159    1.5113551   -5.4768664  
C   -0.8712833    0.0001712   -4.7267109  
H    0.9860725   -1.8859103   -3.3000374  
H    0.5983485    0.0189738   -8.4821823  
H    2.8192286   -2.7774937   -5.0275786  
H    2.3931027   -1.7517868   -7.2745859  
C    2.3971438    2.0127888    3.1728260  
C    1.9431056    1.6308205    1.9564670  
C    0.8496017    0.7127664    2.2356185  
C    0.7794028    0.6545384    3.7115134  
N    1.6840587    1.4146091    4.2663826  
C   -0.1885723   -0.1578550    4.3957118  
C   -1.0476298   -0.8789867    3.6398520  
O   -2.0015663   -1.6796266    4.1448486  
C   -1.0022026   -0.8410666    2.1483229  
O   -1.8147390   -1.5232959    1.5241687  
C    0.0000000    0.0000000    1.4700000  
H    2.3054237    1.9346118    0.9892483  
H   -0.2170646   -0.1815267    5.4753125  
H   -2.4487139   -2.0549881    3.3649027  
H    3.2048689    2.6911772    3.3971983  
