46
31A 32A 41B 5A 17B 26B 45 42 44 13 27 29 2 3 4 7 3 4 3 1 2 0 nosym
C    0.0000000    0.0000000    0.0000000  
C    1.0521668   -0.0011901   -0.8862342  
C    0.4917217   -0.0011956   -2.1979133  
C   -0.9187428    0.0003148   -2.0478683  
N   -1.1833173   -0.0009411   -0.7007912  
C   -1.7951703    0.0010350   -3.1372089  
C   -1.2375839    0.0005225   -4.4010424  
O   -2.0474218    0.0015361   -5.4997581  
C    0.1673577   -0.0013566   -4.5711965  
O    0.5673522   -0.0020687   -5.8915550  
C    1.0325768   -0.0023412   -3.4969891  
H    2.0953058   -0.0030649   -0.6200564  
H   -2.0989775    0.0102371   -0.2891826  
H   -2.8710934    0.0020420   -3.0295514  
H   -1.4634887    0.0006497   -6.2693593  
H    1.5290707   -0.0033152   -5.9180043  
C    3.4064526   -0.7318367   -2.9764950  
C    4.6700472   -0.5171192   -3.4251601  
C    4.5733464    0.4095833   -4.5282045  
C    3.1395587    0.7193978   -4.6865022  
N    2.4861699   -0.0045381   -3.7159923  
C    2.6335424    1.5602167   -5.6238794  
C    3.5630784    2.2027683   -6.5380052  
O    3.2057021    2.9763278   -7.4167479  
C    5.0859337    1.8890250   -6.3887355  
O    5.8780060    2.4238417   -7.1528375  
C    5.5107309    0.9658167   -5.3394090  
H    5.5674381   -0.9577777   -3.0287724  
H    1.5783523    1.7739233   -5.7229402  
H    6.5669017    0.7540380   -5.2425736  
H    3.0700926   -1.3603658   -2.1679763  
C    3.3321173   -0.0004715    2.8079335  
C    2.6974184   -0.0000116    4.0032312  
C    1.2800439    0.0002118    3.6752840  
C    1.2395035   -0.0000644    2.1971295  
N    2.4394063   -0.0005460    1.6831036  
C    0.0000000    0.0000000    1.4700000  
C   -1.1468701   -0.0000635    2.1869543  
O   -2.3742202   -0.0000073    1.6395491  
C   -1.1388768   -0.0001607    3.6796354  
O   -2.2206231   -0.0000905    4.2670412  
C    0.1454524   -0.0001816    4.4024240  
H    3.1367986    0.0000651    4.9860947  
H   -2.9844344   -0.0001026    2.3990168  
H    0.1083576   -0.0003682    5.4835595  
H    4.3940039   -0.0007619    2.6198634  
