44
29A 34B 10A 14A 18B 19B 43 41 12 27 28 26 2 7 4 2 1 7 2 1 3 0 nosym
C    3.2798086    0.0005856   -1.4499647  
C    2.5571145    0.0005565   -2.5996553  
C    1.1637436    0.0001547   -2.2210360  
C    1.1336964   -0.0000200   -0.7459470  
N    2.4483513   -0.0001429   -0.3402720  
C    0.0000000    0.0000000    0.0000000  
C   -1.2757371   -0.0000187   -0.6964417  
O   -2.3524597   -0.0000640   -0.1142316  
C   -1.2676493   -0.0000874   -2.2584081  
O   -2.3355762   -0.0004102   -2.8557296  
C    0.0181561    0.0001758   -2.9516297  
H    2.9547354    0.0006074   -3.5989102  
H    0.0150792    0.0003317   -4.0331628  
H    2.7563626    0.0012823    0.6148063  
C    6.6317391   -0.0005812   -4.3241589  
C    5.4016591   -0.0005061   -3.7488513  
C    5.6054527    0.0003362   -2.3194100  
C    7.0655612    0.0007779   -2.1075770  
N    7.6303558   -0.0002120   -3.3621273  
C    7.6659171    0.0019861   -0.8905000  
C    6.8173809    0.0026872    0.2895510  
O    7.2622813    0.0037196    1.4298858  
C    5.2683490    0.0019843    0.0887899  
O    4.5438177    0.0022582    1.0748502  
C    4.7390845    0.0009613   -1.2727278  
H    4.4591043   -0.0011685   -4.2667348  
H    8.7388163    0.0024207   -0.7570925  
H    6.8927452   -0.0010919   -5.3699914  
H    8.6161415    0.0013557   -3.5499360  
C    2.3971438    2.0127888    3.1728260  
C    1.9431056    1.6308205    1.9564670  
C    0.8496017    0.7127664    2.2356185  
C    0.7794028    0.6545384    3.7115134  
N    1.6840587    1.4146091    4.2663826  
C   -0.1885723   -0.1578550    4.3957118  
C   -1.0476298   -0.8789867    3.6398520  
O   -2.0015663   -1.6796266    4.1448486  
C   -1.0022026   -0.8410666    2.1483229  
O   -1.8147390   -1.5232959    1.5241687  
C    0.0000000    0.0000000    1.4700000  
H    2.3054237    1.9346118    0.9892483  
H   -0.2170646   -0.1815267    5.4753125  
H   -2.4487139   -2.0549881    3.3649027  
H    3.2048689    2.6911772    3.3971983  
