46
36B 41B 21B 26B 43 45 28 30 7 4 7 4 2 0 2 0 nosym
C    1.1188644    0.0008217   -0.8003807  
C    0.0000000    0.0000000    0.0000000  
C   -1.1323862    0.0008904   -0.8673526  
C   -0.6382660    0.0019682   -2.1969280  
N    0.7324018    0.0038477   -2.1202240  
C   -1.4770912    0.0027325   -3.3154810  
C   -2.8395475    0.0020958   -3.0876858  
O   -3.7039195    0.0024443   -4.1440347  
C   -3.3517868    0.0013946   -1.7684332  
O   -4.7300492    0.0012389   -1.7073123  
C   -2.5248543    0.0009136   -0.6644818  
H   -1.1067568    0.0036993   -4.3313811  
H   -4.5940030    0.0021851   -3.7685130  
H   -4.9934599    0.0007287   -0.7819913  
H   -2.9462578    0.0005617    0.3339655  
H    2.1619894    0.0009344   -0.5342067  
C    1.6478436   -0.0100108   -3.2702998  
C    3.0011491   -0.0108197   -3.2583477  
C    3.3886134   -0.0271955   -4.6605257  
C    2.1085909   -0.0349146   -5.4008411  
N    1.0846831   -0.0248194   -4.5912109  
C    2.0603582   -0.0513627   -6.8369776  
C    3.2373639   -0.0593307   -7.5032578  
O    3.3413216   -0.0747247   -8.8430328  
C    4.5456733   -0.0514960   -6.7846299  
O    5.5777528   -0.0595972   -7.4554257  
C    4.5687189   -0.0346559   -5.3111614  
H    3.6556443   -0.0013698   -2.4035831  
H    1.1107924   -0.0569031   -7.3519570  
H    4.2998441   -0.0769639   -9.0173381  
H    5.5367605   -0.0293030   -4.8283609  
C    0.0000000    0.0000000    1.4700000  
C    1.0662921    0.0000102    2.3034270  
C    0.4961870   -0.0000064    3.6418889  
C   -0.9663858    0.0000850    3.4240247  
N   -1.2632773    0.0000084    2.1528658  
C   -1.8985362    0.0000517    4.5177257  
C   -1.3925775   -0.0004564    5.7720543  
O   -2.1456383   -0.0005410    6.8851312  
C    0.0786232   -0.0009323    6.0245000  
O    0.4683759   -0.0012588    7.1921102  
C    1.0143166   -0.0008442    4.8859032  
H    2.1107198   -0.0000632    2.0421868  
H   -2.9622183    0.0003270    4.3293377  
H   -1.5042274   -0.0009692    7.6184419  
H    2.0724152   -0.0013148    5.1109744  
