44
29A 34B 14A 15A 24B 43 41 28 25 27 2 7 2 3 4 2 0 3 0 nosym
C    3.3321171    0.0004715   -1.3379333  
C    2.6974181    0.0000116   -2.5332310  
C    1.2800437   -0.0002119   -2.2052837  
C    1.2395034    0.0000643   -0.7271293  
N    2.4394063    0.0005459   -0.2131034  
C    0.0000000    0.0000000    0.0000000  
C   -1.1468701    0.0000634   -0.7169539  
O   -2.3742203    0.0000072   -0.1695490  
C   -1.1388767    0.0001607   -2.2096351  
O   -2.2206235    0.0000904   -2.7970409  
C    0.1454521    0.0001815   -2.9324239  
H   -2.9844345    0.0001025   -0.9290163  
H    0.1083575    0.0003681   -4.0135593  
H    4.3940037    0.0007619   -1.1498635  
C    6.1750784   -2.1401270   -4.0541463  
C    6.2185431   -1.7328822   -5.3440460  
C    5.0928620   -0.8226160   -5.4881182  
C    4.4613985   -0.7962589   -4.1512772  
N    5.0914469   -1.5665799   -3.3065083  
C    3.2973502   -0.0000932   -3.8752376  
C    2.7875457    0.7365668   -4.8885322  
O    1.7053543    1.5249195   -4.7727639  
C    3.4023841    0.7314006   -6.2487188  
O    2.8851961    1.4261368   -7.1234066  
C    4.5959989   -0.0935907   -6.5067836  
H    6.9270473   -2.0152357   -6.1038972  
H    1.5884068    1.9168938   -5.6569770  
H    5.0113837   -0.0696979   -7.5053401  
H    6.8414753   -2.8219664   -3.5501789  
C    2.3971438    2.0127888    3.1728260  
C    1.9431056    1.6308205    1.9564670  
C    0.8496017    0.7127664    2.2356185  
C    0.7794028    0.6545384    3.7115134  
N    1.6840587    1.4146091    4.2663826  
C   -0.1885723   -0.1578550    4.3957118  
C   -1.0476298   -0.8789867    3.6398520  
O   -2.0015663   -1.6796266    4.1448486  
C   -1.0022026   -0.8410666    2.1483229  
O   -1.8147390   -1.5232959    1.5241687  
C    0.0000000    0.0000000    1.4700000  
H    2.3054237    1.9346118    0.9892483  
H   -0.2170646   -0.1815267    5.4753125  
H   -2.4487139   -2.0549881    3.3649027  
H    3.2048689    2.6911772    3.3971983  
