46
31A 36B 17A 26B 45 43 27 29 2 7 3 4 2 0 2 0 nosym
C    3.3003551    0.0005277   -1.4738980  
C    2.5232820    0.0003498   -2.6090740  
C    1.1623207   -0.0001318   -2.1820099  
C    1.1711887    0.0000584   -0.7636138  
N    2.4852302   -0.0014919   -0.3662352  
C    0.0000000    0.0000000    0.0000000  
C   -1.2020382    0.0000521   -0.6806482  
O   -2.3759248    0.0003494    0.0157741  
C   -1.2314651   -0.0005111   -2.0955511  
O   -2.5054381   -0.0008036   -2.6250184  
C   -0.0764509   -0.0007271   -2.8495194  
H    2.8036266    0.0088182    0.5858670  
H   -3.0835635    0.0000348   -0.6418822  
H   -2.4360036   -0.0011526   -3.5845927  
H   -0.1304085   -0.0013419   -3.9319086  
H    4.3715552    0.0004895   -1.3667123  
C    4.1171242   -0.7271062   -4.4445137  
C    4.3278185   -0.5117036   -5.7686303  
C    3.3122727    0.4143190   -6.2113316  
C    2.4867580    0.7229877   -5.0280992  
N    3.0267445   -0.0008950   -3.9901692  
C    1.4208269    1.5629158   -5.0321547  
C    1.0625892    2.2056490   -6.2855878  
O    0.1193415    2.9784598   -6.3921130  
C    1.9228121    1.8931123   -7.5513454  
O    1.6305917    2.4280920   -8.6123193  
C    3.0482303    0.9707966   -7.4224265  
H    5.1057478   -0.9514809   -6.3669918  
H    0.8286154    1.7757888   -4.1530187  
H    3.6389555    0.7598509   -8.3034881  
H    4.6665438   -1.3554374   -3.7624378  
C    2.3971438    2.0127888    3.1728260  
C    1.9431056    1.6308205    1.9564670  
C    0.8496017    0.7127664    2.2356185  
C    0.7794028    0.6545384    3.7115134  
N    1.6840587    1.4146091    4.2663826  
C   -0.1885723   -0.1578550    4.3957118  
C   -1.0476298   -0.8789867    3.6398520  
O   -2.0015663   -1.6796266    4.1448486  
C   -1.0022026   -0.8410666    2.1483229  
O   -1.8147390   -1.5232959    1.5241687  
C    0.0000000    0.0000000    1.4700000  
H    2.3054237    1.9346118    0.9892483  
H   -0.2170646   -0.1815267    5.4753125  
H   -2.4487139   -2.0549881    3.3649027  
H    3.2048689    2.6911772    3.3971983  
