46
36B 41B 16A 17A 26B 43 45 30 27 29 7 4 2 3 4 2 0 3 0 nosym
C    1.1188644    0.0008217   -0.8003807  
C    0.0000000    0.0000000    0.0000000  
C   -1.1323862    0.0008904   -0.8673526  
C   -0.6382660    0.0019682   -2.1969280  
N    0.7324018    0.0038477   -2.1202240  
C   -1.4770912    0.0027325   -3.3154810  
C   -2.8395475    0.0020958   -3.0876858  
O   -3.7039195    0.0024443   -4.1440347  
C   -3.3517868    0.0013946   -1.7684332  
O   -4.7300492    0.0012389   -1.7073123  
C   -2.5248543    0.0009136   -0.6644818  
H   -1.1067568    0.0036993   -4.3313811  
H   -4.5940030    0.0021851   -3.7685130  
H   -4.9934599    0.0007287   -0.7819913  
H   -2.9462578    0.0005617    0.3339655  
H    2.1619894    0.0009344   -0.5342067  
C    4.4769655   -2.1470658   -2.7027282  
C    4.8409681   -1.7539578   -3.9455266  
C    3.7877260   -0.8472151   -4.3756416  
C    2.8430647   -0.8072155   -3.2387167  
N    3.2418490   -1.5671454   -2.2551177  
C    1.6478436   -0.0100108   -3.2702998  
C    1.4074697    0.7146083   -4.3867595  
O    0.3314549    1.5023749   -4.5530619  
C    2.3418724    0.6955137   -5.5506699  
O    2.0597593    1.3797233   -6.5342809  
C    3.5612156   -0.1302678   -5.4939934  
H    5.7161627   -2.0434644   -4.5016703  
H    0.4389885    1.8844061   -5.4428041  
H    4.2123693   -0.1166622   -6.3577320  
H    4.9959813   -2.8222064   -2.0410781  
C    0.0000000    0.0000000    1.4700000  
C    1.0662921    0.0000102    2.3034270  
C    0.4961870   -0.0000064    3.6418889  
C   -0.9663858    0.0000850    3.4240247  
N   -1.2632773    0.0000084    2.1528658  
C   -1.8985362    0.0000517    4.5177257  
C   -1.3925775   -0.0004564    5.7720543  
O   -2.1456383   -0.0005410    6.8851312  
C    0.0786232   -0.0009323    6.0245000  
O    0.4683759   -0.0012588    7.1921102  
C    1.0143166   -0.0008442    4.8859032  
H    2.1107198   -0.0000632    2.0421868  
H   -2.9622183    0.0003270    4.3293377  
H   -1.5042274   -0.0009692    7.6184419  
H    2.0724152   -0.0013148    5.1109744  
