44
5B 15A 29A 30A 39B 11 28 43 40 42 7 2 2 3 4 1 1 3 0 nosym
C    0.4922789   -0.6866273   -5.2544707  
C   -0.2963293   -0.0005341   -4.3948471  
C   -1.2147742    0.7448450   -5.2418231  
C   -0.8280450    0.3806988   -6.6218313  
N    0.1719929   -0.4581846   -6.6355599  
C   -1.5074442    0.9169400   -7.7689787  
C   -2.5270957    1.7775309   -7.5475570  
O   -3.2483910    2.3537790   -8.5241388  
C   -2.9413631    2.1642885   -6.1666287  
O   -3.8780412    2.9528107   -6.0397863  
C   -2.2287463    1.6006541   -5.0062766  
H   -1.2035634    0.6336015   -8.7661183  
H   -3.8972904    2.9107723   -8.0574047  
H   -2.5594551    1.9058397   -4.0225476  
H    1.3023145   -1.3589278   -5.0203180  
C    3.1301146   -0.0010313   -1.7028256  
C    2.5367765   -0.0002766   -0.4864669  
C    1.1089901    0.0001027   -0.7656184  
C    1.0177865   -0.0004150   -2.2415133  
N    2.1993571   -0.0011612   -2.7963824  
C   -0.2459219   -0.0002879   -2.9257116  
C   -1.3675326   -0.0000606   -2.1698520  
O   -2.6129318    0.0000865   -2.6748483  
C   -1.3083588    0.0000910   -0.6783229  
O   -2.3693264    0.0004206   -0.0541685  
C    0.0000000    0.0000000    0.0000000  
H    3.0096016   -0.0001007    0.4807518  
H   -3.1967444    0.0002093   -1.8949026  
H    4.1849275   -0.0015114   -1.9271979  
C    2.5528530    2.1414826    2.8079335  
C    2.0663498    1.7338582    4.0032312  
C    0.9804344    0.8229586    3.6752840  
C    0.9495562    0.7966882    2.1971295  
N    1.8690446    1.5676019    1.6831036  
C    0.0000000    0.0000000    1.4700000  
C   -0.8785127   -0.7372425    2.1869543  
O   -1.8187535   -1.5261249    1.6395491  
C   -0.8723269   -0.7321790    3.6796354  
O   -1.7010379   -1.4274584    4.2670412  
C    0.1115397    0.0933559    4.4024240  
H    2.4028853    2.0163452    4.9860947  
H   -2.2861435   -1.9184361    2.3990168  
H    0.0832434    0.0693689    5.4835595  
H    3.3664920    2.8238276    2.6198634  
