48
33A 38B 16A 20A 21B 47 45 32 28 29 2 7 2 1 7 2 0 3 0 nosym
C    3.3003551    0.0005277   -1.4738980  
C    2.5232820    0.0003498   -2.6090740  
C    1.1623207   -0.0001318   -2.1820099  
C    1.1711887    0.0000584   -0.7636138  
N    2.4852302   -0.0014919   -0.3662352  
C    0.0000000    0.0000000    0.0000000  
C   -1.2020382    0.0000521   -0.6806482  
O   -2.3759248    0.0003494    0.0157741  
C   -1.2314651   -0.0005111   -2.0955511  
O   -2.5054381   -0.0008036   -2.6250184  
C   -0.0764509   -0.0007271   -2.8495194  
H    2.8036266    0.0088182    0.5858670  
H   -3.0835635    0.0000348   -0.6418822  
H   -2.4360036   -0.0011526   -3.5845927  
H   -0.1304085   -0.0013419   -3.9319086  
H    4.3715552    0.0004895   -1.3667123  
C    5.9339404   -2.1239632   -4.5697793  
C    5.0139155   -1.6613190   -3.6576484  
C    4.1430871   -0.7747005   -4.3577670  
C    4.5843193   -0.7357738   -5.7052556  
N    5.6745657   -1.5647287   -5.7991410  
C    3.9561317    0.0394408   -6.6846488  
C    2.8624165    0.7887787   -6.2967606  
O    2.2114293    1.5633305   -7.2128929  
C    2.4073430    0.7634326   -4.9569534  
O    1.3072171    1.5639366   -4.7283488  
C    3.0267445   -0.0008950   -3.9901692  
H    4.9758717   -1.9289913   -2.6155848  
H    6.1946449   -1.7467729   -6.6384019  
H    4.2876092    0.0735629   -7.7133179  
H    1.4889959    1.9966211   -6.7400143  
H    1.0643871    1.4893956   -3.8004041  
H    6.7555166   -2.8075032   -4.4403776  
C    2.3971438    2.0127888    3.1728260  
C    1.9431056    1.6308205    1.9564670  
C    0.8496017    0.7127664    2.2356185  
C    0.7794028    0.6545384    3.7115134  
N    1.6840587    1.4146091    4.2663826  
C   -0.1885723   -0.1578550    4.3957118  
C   -1.0476298   -0.8789867    3.6398520  
O   -2.0015663   -1.6796266    4.1448486  
C   -1.0022026   -0.8410666    2.1483229  
O   -1.8147390   -1.5232959    1.5241687  
C    0.0000000    0.0000000    1.4700000  
H    2.3054237    1.9346118    0.9892483  
H   -0.2170646   -0.1815267    5.4753125  
H   -2.4487139   -2.0549881    3.3649027  
H    3.2048689    2.6911772    3.3971983  
