44
34B 39B 5B 19B 24B 41 43 12 26 28 7 4 7 7 4 2 1 2 0 nosym
C    3.1301149   -0.0010311   -1.7028252  
C    2.5367766   -0.0002767   -0.4864665  
C    1.1089904    0.0001028   -0.7656183  
C    1.0177870   -0.0004148   -2.2415132  
N    2.1993578   -0.0011611   -2.7963820  
C   -0.2459213   -0.0002877   -2.9257118  
C   -1.3675317   -0.0000605   -2.1698525  
O   -2.6129311    0.0000867   -2.6748493  
C   -1.3083587    0.0000910   -0.6783232  
O   -2.3693264    0.0004206   -0.0541692  
C    0.0000000    0.0000000    0.0000000  
H    3.0096016   -0.0001007    0.4807523  
H   -0.2829632   -0.0004687   -4.0053124  
H   -3.1967439    0.0002094   -1.8949037  
C    4.5679461   -0.0016854   -2.0086701  
C    5.6049852   -0.0016932   -1.1391133  
C    6.7955419   -0.0024718   -1.9752198  
C    6.2781452   -0.0029783   -3.3604579  
N    4.9730339   -0.0024399   -3.3863780  
C    7.1539712   -0.0037581   -4.4997625  
C    8.4861197   -0.0036311   -4.2658492  
O    9.4181586   -0.0043055   -5.2340145  
C    9.0391356   -0.0027525   -2.8793668  
O   10.2622856   -0.0028092   -2.7410737  
C    8.1201340   -0.0020063   -1.7272559  
H    5.5667631   -0.0011379   -0.0631881  
H    6.7483984   -0.0043219   -5.5009718  
H   10.2688726   -0.0039791   -4.7592111  
H    8.5604255   -0.0012654   -0.7391402  
C    0.0000000    0.0000000    1.4700000  
C    1.0662921    0.0000102    2.3034270  
C    0.4961870   -0.0000064    3.6418889  
C   -0.9663858    0.0000850    3.4240247  
N   -1.2632773    0.0000084    2.1528658  
C   -1.8985362    0.0000517    4.5177257  
C   -1.3925775   -0.0004564    5.7720543  
O   -2.1456383   -0.0005410    6.8851312  
C    0.0786232   -0.0009323    6.0245000  
O    0.4683759   -0.0012588    7.1921102  
C    1.0143166   -0.0008442    4.8859032  
H    2.1107198   -0.0000632    2.0421868  
H   -2.9622183    0.0003270    4.3293377  
H   -1.5042274   -0.0009692    7.6184419  
H    2.0724152   -0.0013148    5.1109744  
