46
31A 36B 16A 20A 21B 45 43 29 30 28 2 7 2 1 7 2 0 3 0 nosym
C    1.1188644    0.0008217   -0.8003807  
C    0.0000000    0.0000000    0.0000000  
C   -1.1323862    0.0008904   -0.8673526  
C   -0.6382660    0.0019682   -2.1969280  
N    0.7324018    0.0038477   -2.1202240  
C   -1.4770912    0.0027325   -3.3154810  
C   -2.8395475    0.0020958   -3.0876858  
O   -3.7039195    0.0024443   -4.1440347  
C   -3.3517868    0.0013946   -1.7684332  
O   -4.7300492    0.0012389   -1.7073123  
C   -2.5248543    0.0009136   -0.6644818  
H   -1.1067568    0.0036993   -4.3313811  
H   -4.5940030    0.0021851   -3.7685130  
H   -4.9934599    0.0007287   -0.7819913  
H   -2.9462578    0.0005617    0.3339655  
H    2.1619894    0.0009344   -0.5342067  
C    4.5412299   -2.0990458   -2.8732839  
C    3.3927945   -1.6299071   -2.3209434  
C    2.7903275   -0.7451835   -3.2900321  
C    3.6883337   -0.7373119   -4.4606359  
N    4.7307579   -1.5775627   -4.1440605  
C    3.4698859   -0.0211200   -5.5924727  
C    2.2703755    0.7967024   -5.6623073  
O    1.9845410    1.4779272   -6.6382847  
C    1.3053399    0.8036744   -4.4341122  
O    0.2924811    1.4886258   -4.4812228  
C    1.6478436   -0.0100108   -3.2702998  
H    3.0113365   -1.8754419   -1.3458453  
H    4.1412534   -0.0294742   -6.4398836  
H    5.2651713   -2.7816995   -2.4588175  
H    5.5083106   -1.7821921   -4.7445492  
C    2.3971438    2.0127888    3.1728260  
C    1.9431056    1.6308205    1.9564670  
C    0.8496017    0.7127664    2.2356185  
C    0.7794028    0.6545384    3.7115134  
N    1.6840587    1.4146091    4.2663826  
C   -0.1885723   -0.1578550    4.3957118  
C   -1.0476298   -0.8789867    3.6398520  
O   -2.0015663   -1.6796266    4.1448486  
C   -1.0022026   -0.8410666    2.1483229  
O   -1.8147390   -1.5232959    1.5241687  
C    0.0000000    0.0000000    1.4700000  
H    2.3054237    1.9346118    0.9892483  
H   -0.2170646   -0.1815267    5.4753125  
H   -2.4487139   -2.0549881    3.3649027  
H    3.2048689    2.6911772    3.3971983  
