44
29A 34B 10B 19B 43 41 13 25 2 7 4 7 2 1 1 0 nosym
C    3.3321175    0.0004716   -1.3379333  
C    2.6974185    0.0000118   -2.5332309  
C    1.2800442   -0.0002116   -2.2052838  
C    1.2395036    0.0000644   -0.7271294  
N    2.4394064    0.0005460   -0.2131035  
C    0.0000000    0.0000000    0.0000000  
C   -1.1468696    0.0000635   -0.7169542  
O   -2.3742199    0.0000074   -0.1695490  
C   -1.1388767    0.0001608   -2.2096353  
O   -2.2206230    0.0000906   -2.7970411  
C    0.1454525    0.0001818   -2.9324239  
H    3.1367990   -0.0000649   -3.5160943  
H   -2.9844341    0.0001027   -0.9290168  
H    0.1083581    0.0003684   -4.0135593  
C    5.7851543    0.0006214   -1.9873437  
C    4.7795908    0.0008674   -1.0815721  
C    5.4416655    0.0017642    0.2138644  
C    6.8854802    0.0018489   -0.1054841  
N    7.0929849    0.0012617   -1.3942552  
C    7.8916460    0.0026972    0.9205350  
C    7.4744101    0.0038167    2.2070990  
O    8.3032740    0.0046904    3.2649385  
C    6.0244002    0.0041345    2.5615466  
O    5.7170382    0.0050467    3.7534979  
C    5.0115684    0.0032050    1.4909881  
H    8.9395973    0.0025328    0.6584134  
H    7.7145742    0.0054051    4.0412015  
H    3.9717453    0.0035868    1.7893139  
H    5.7099341    0.0000064   -3.0631295  
C    2.3971438    2.0127888    3.1728260  
C    1.9431056    1.6308205    1.9564670  
C    0.8496017    0.7127664    2.2356185  
C    0.7794028    0.6545384    3.7115134  
N    1.6840587    1.4146091    4.2663826  
C   -0.1885723   -0.1578550    4.3957118  
C   -1.0476298   -0.8789867    3.6398520  
O   -2.0015663   -1.6796266    4.1448486  
C   -1.0022026   -0.8410666    2.1483229  
O   -1.8147390   -1.5232959    1.5241687  
C    0.0000000    0.0000000    1.4700000  
H    2.3054237    1.9346118    0.9892483  
H   -0.2170646   -0.1815267    5.4753125  
H   -2.4487139   -2.0549881    3.3649027  
H    3.2048689    2.6911772    3.3971983  
