46
31A 32A 41B 5B 21B 26B 45 42 44 13 28 29 2 3 4 7 7 4 3 1 2 0 nosym
C    0.0000000    0.0000000    0.0000000  
C    1.0521668   -0.0011901   -0.8862342  
C    0.4917217   -0.0011956   -2.1979133  
C   -0.9187428    0.0003148   -2.0478683  
N   -1.1833173   -0.0009411   -0.7007912  
C   -1.7951703    0.0010350   -3.1372089  
C   -1.2375839    0.0005225   -4.4010424  
O   -2.0474218    0.0015361   -5.4997581  
C    0.1673577   -0.0013566   -4.5711965  
O    0.5673522   -0.0020687   -5.8915550  
C    1.0325768   -0.0023412   -3.4969891  
H    2.0953058   -0.0030649   -0.6200564  
H   -2.0989775    0.0102371   -0.2891826  
H   -2.8710934    0.0020420   -3.0295514  
H   -1.4634887    0.0006497   -6.2693593  
H    1.5290707   -0.0033152   -5.9180043  
C    2.4861699   -0.0045381   -3.7159923  
C    3.4897067   -0.0058944   -2.8011223  
C    4.7313102   -0.0078157   -3.5381793  
C    4.3662417   -0.0074359   -4.9676953  
N    2.9909942   -0.0058195   -5.0074605  
C    5.2594864   -0.0084769   -5.9893685  
C    6.6748993   -0.0103046   -5.6590059  
O    7.5569782   -0.0114082   -6.5076737  
C    7.0843356   -0.0109890   -4.1516353  
O    8.2730118   -0.0128319   -3.8612814  
C    6.0304249   -0.0094612   -3.1401405  
H    3.3734532   -0.0057667   -1.7319643  
H    4.9706893   -0.0080440   -7.0312446  
H    6.3222878   -0.0097421   -2.0987278  
H    2.4390579   -0.0036424   -5.8455589  
C    3.3321173   -0.0004715    2.8079335  
C    2.6974184   -0.0000116    4.0032312  
C    1.2800439    0.0002118    3.6752840  
C    1.2395035   -0.0000644    2.1971295  
N    2.4394063   -0.0005460    1.6831036  
C    0.0000000    0.0000000    1.4700000  
C   -1.1468701   -0.0000635    2.1869543  
O   -2.3742202   -0.0000073    1.6395491  
C   -1.1388768   -0.0001607    3.6796354  
O   -2.2206231   -0.0000905    4.2670412  
C    0.1454524   -0.0001816    4.4024240  
H    3.1367986    0.0000651    4.9860947  
H   -2.9844344   -0.0001026    2.3990168  
H    0.1083576   -0.0003682    5.4835595  
H    4.3940039   -0.0007619    2.6198634  
