44
5B 10B 34B 12 14 40 7 4 7 2 0 1 0 nosym
C    3.2973510   -0.0000932   -3.8752371  
C    4.6109364    0.0004820   -4.2009257  
C    4.6367196    0.0000584   -5.6555163  
C    3.2125798   -0.0009019   -6.0535226  
N    2.4227573   -0.0009142   -5.0142107  
C    2.8079504   -0.0015103   -7.4324209  
C    3.7817672   -0.0007856   -8.3710437  
O    3.5485416   -0.0012358   -9.6945417  
C    5.2278974    0.0005619   -8.0010883  
O    6.0602357    0.0010409   -8.9079695  
C    5.6174385    0.0011208   -6.5797565  
H    5.4578083    0.0012056   -3.5361829  
H    1.7599996   -0.0024153   -7.6945427  
H    4.4333810   -0.0004720  -10.1022322  
H    6.6752628    0.0022152   -6.3534026  
C    3.3321177    0.0004715   -1.3379328  
C    2.6974188    0.0000116   -2.5332306  
C    1.2800443   -0.0002119   -2.2052837  
C    1.2395037    0.0000643   -0.7271292  
N    2.4394063    0.0005459   -0.2131032  
C    0.0000000    0.0000000    0.0000000  
C   -1.1468699    0.0000634   -0.7169542  
O   -2.3742202    0.0000072   -0.1695494  
C   -1.1388764    0.0001607   -2.2096355  
O   -2.2206225    0.0000904   -2.7970414  
C    0.1454529    0.0001815   -2.9324239  
H   -2.9844343    0.0001025   -0.9290170  
H    0.1083582    0.0003681   -4.0135594  
H    4.3940041    0.0007619   -1.1498627  
C    0.8175213    0.6860729    2.3021913  
C    0.0000000    0.0000000    1.4700000  
C   -0.8887526   -0.7456559    2.3478473  
C   -0.4549825   -0.3816753    3.7138435  
N    0.5448156    0.4573574    3.6934124  
C   -1.0945674   -0.9182058    4.8835240  
C   -2.1210866   -1.7789155    4.6970523  
O   -2.8083856   -2.3554314    5.6976972  
C   -2.5824069   -2.1655116    3.3310774  
O   -3.5227682   -2.9541547    3.2362962  
C   -1.9100805   -1.6015804    2.1470656  
H   -0.7567140   -0.6349833    5.8697035  
H   -3.4728268   -2.9124471    5.2533954  
H   -2.2742832   -1.9066565    1.1752040  
H    1.6189533    1.3585343    2.0405121  
