46
31A 32A 41B 16A 20A 21B 45 42 44 29 30 28 2 3 4 2 1 7 3 0 3 0 nosym
C    3.3041272    0.0001176   -1.5420431  
C    2.5845372   -0.0004781   -0.3695853  
C    1.2040006   -0.0000009   -0.7283588  
C    1.1422374    0.0006035   -2.1454372  
N    2.4348639    0.0026108   -2.6077465  
C   -0.0655182    0.0008795   -2.8497919  
C   -1.2321769    0.0002322   -2.1101399  
O   -2.4392814    0.0001143   -2.7472520  
C   -1.1911210   -0.0000008   -0.6955264  
O   -2.4371527   -0.0002321   -0.1032861  
C    0.0000000    0.0000000    0.0000000  
H    3.0031535   -0.0000660    0.6222584  
H   -0.1193549    0.0014841   -3.9297469  
H   -3.1132989   -0.0000650   -2.0551785  
H   -2.3200281   -0.0004071    0.8516412  
H    4.3686623    0.0004070   -1.7024293  
C    5.6515799   -2.1002976   -4.7819009  
C    4.8081957   -1.6310298   -3.8266176  
C    3.8761260   -0.7467204   -4.4854639  
C    4.2482781   -0.7392324   -5.9131323  
N    5.3319464   -1.5792871   -6.0265386  
C    3.6067593   -0.0234894   -6.8711878  
C    2.4743156    0.7942201   -6.4693699  
O    1.8313257    1.4750508   -7.2576174  
C    2.0628000    0.8015929   -4.9625833  
O    1.1111838    1.4864536   -4.6123646  
C    2.8310664   -0.0116222   -4.0232753  
H    4.8359711   -1.8762188   -2.7798492  
H    3.8957834   -0.0321198   -7.9129651  
H    6.4798590   -2.7827406   -4.6813304  
H    5.8148558   -1.7840905   -6.8820508  
C    2.5528530    2.1414826    2.8079335  
C    2.0663498    1.7338582    4.0032312  
C    0.9804344    0.8229586    3.6752840  
C    0.9495562    0.7966882    2.1971295  
N    1.8690446    1.5676019    1.6831036  
C    0.0000000    0.0000000    1.4700000  
C   -0.8785127   -0.7372425    2.1869543  
O   -1.8187535   -1.5261249    1.6395491  
C   -0.8723269   -0.7321790    3.6796354  
O   -1.7010379   -1.4274584    4.2670412  
C    0.1115397    0.0933559    4.4024240  
H    2.4028853    2.0163452    4.9860947  
H   -2.2861435   -1.9184361    2.3990168  
H    0.0832434    0.0693689    5.4835595  
H    3.3664920    2.8238276    2.6198634  
