44
34B 5B 19B 40 12 25 7 7 7 1 1 1 0 nosym
C    3.1301149   -0.0010311   -1.7028252  
C    2.5367766   -0.0002767   -0.4864665  
C    1.1089904    0.0001028   -0.7656183  
C    1.0177870   -0.0004148   -2.2415132  
N    2.1993578   -0.0011611   -2.7963820  
C   -0.2459213   -0.0002877   -2.9257118  
C   -1.3675317   -0.0000605   -2.1698525  
O   -2.6129311    0.0000867   -2.6748493  
C   -1.3083587    0.0000910   -0.6783232  
O   -2.3693264    0.0004206   -0.0541692  
C    0.0000000    0.0000000    0.0000000  
H    3.0096016   -0.0001007    0.4807523  
H   -0.2829632   -0.0004687   -4.0053124  
H   -3.1967439    0.0002094   -1.8949037  
C    5.6039776   -0.0014373   -1.1379127  
C    4.5679461   -0.0016854   -2.0086701  
C    5.1852101   -0.0028977   -3.3260476  
C    6.6391264   -0.0031438   -3.0563959  
N    6.8907017   -0.0023715   -1.7754982  
C    7.6095175   -0.0043137   -4.1163134  
C    7.1484099   -0.0055865   -5.3878133  
O    7.9405124   -0.0067608   -6.4734527  
C    5.6870985   -0.0057479   -5.6923308  
O    5.3390445   -0.0068140   -6.8730415  
C    4.7115725   -0.0044883   -4.5876717  
H    8.6658408   -0.0042614   -3.8902808  
H    7.3255402   -0.0075179   -7.2290722  
H    3.6621311   -0.0047654   -4.8501659  
H    5.5656910   -0.0006310   -0.0601802  
C    0.8175213    0.6860729    2.3021913  
C    0.0000000    0.0000000    1.4700000  
C   -0.8887526   -0.7456559    2.3478473  
C   -0.4549825   -0.3816753    3.7138435  
N    0.5448156    0.4573574    3.6934124  
C   -1.0945674   -0.9182058    4.8835240  
C   -2.1210866   -1.7789155    4.6970523  
O   -2.8083856   -2.3554314    5.6976972  
C   -2.5824069   -2.1655116    3.3310774  
O   -3.5227682   -2.9541547    3.2362962  
C   -1.9100805   -1.6015804    2.1470656  
H   -0.7567140   -0.6349833    5.8697035  
H   -3.4728268   -2.9124471    5.2533954  
H   -2.2742832   -1.9066565    1.1752040  
H    1.6189533    1.3585343    2.0405121  
