48
33A 34A 43B 16A 20A 21B 47 44 46 32 28 29 2 3 4 2 1 7 3 0 3 0 nosym
C    1.1243415    0.0099159   -0.7919008  
C    0.7474084    0.0234036   -2.1148547  
C   -0.6787372    0.0234950   -2.1414699  
C   -1.1201741    0.0099353   -0.7935545  
N    0.0000000    0.0000000    0.0000000  
C   -2.4730813    0.0065388   -0.4408235  
C   -3.3971951    0.0173288   -1.4675053  
O   -4.7313510    0.0149472   -1.1793456  
C   -2.9763637    0.0305528   -2.8186317  
O   -4.0166458    0.0397846   -3.7247611  
C   -1.6418550    0.0336375   -3.1673478  
H   -2.8160168   -0.0039199    0.5845974  
H   -5.1938811    0.0234395   -2.0274371  
H   -3.6464651    0.0484770   -4.6127333  
H   -1.3497452    0.0436785   -4.2109230  
H    2.1062467    0.0051388   -0.3505413  
C    4.6033855   -2.0936204   -2.9144231  
C    3.4416706   -1.6366434   -2.3364460  
C    2.8380291   -0.7402902   -3.2674496  
C    3.6838497   -0.6898570   -4.4049784  
N    4.7474130   -1.5216283   -4.1567715  
C    3.3988715    0.0969608   -5.5250200  
C    2.2387576    0.8462874   -5.4963340  
O    1.9120936    1.6319095   -6.5636213  
C    1.3822496    0.8095563   -4.3703400  
O    0.2665838    1.6116092   -4.4942145  
C    1.6628963    0.0337773   -3.2649305  
H    3.0750419   -1.9142493   -1.3630438  
H    5.5067780   -1.6973427   -4.7895989  
H    4.0394880    0.1398851   -6.3950601  
H    1.0770731    2.0631004   -6.3398369  
H   -0.2580249    1.5289360   -3.6919959  
H    5.3413639   -2.7812155   -2.5381784  
C    2.5528530    2.1414826    2.8079335  
C    2.0663498    1.7338582    4.0032312  
C    0.9804344    0.8229586    3.6752840  
C    0.9495562    0.7966882    2.1971295  
N    1.8690446    1.5676019    1.6831036  
C    0.0000000    0.0000000    1.4700000  
C   -0.8785127   -0.7372425    2.1869543  
O   -1.8187535   -1.5261249    1.6395491  
C   -0.8723269   -0.7321790    3.6796354  
O   -1.7010379   -1.4274584    4.2670412  
C    0.1115397    0.0933559    4.4024240  
H    2.4028853    2.0163452    4.9860947  
H   -2.2861435   -1.9184361    2.3990168  
H    0.0832434    0.0693689    5.4835595  
H    3.3664920    2.8238276    2.6198634  
