44
29A 30A 39B 0B 19A 43 40 42 12 25 2 3 4 2 7 3 1 1 0 nosym
C    3.2798084    0.0005856   -1.4499649  
C    2.5571145    0.0005564   -2.5996554  
C    1.1637435    0.0001547   -2.2210363  
C    1.1336965   -0.0000200   -0.7459473  
N    2.4483513   -0.0001428   -0.3402723  
C    0.0000000    0.0000000    0.0000000  
C   -1.2757369   -0.0000187   -0.6964416  
O   -2.3524596   -0.0000640   -0.1142313  
C   -1.2676495   -0.0000874   -2.2584083  
O   -2.3355762   -0.0004102   -2.8557296  
C    0.0181561    0.0001758   -2.9516298  
H    2.9547353    0.0006073   -3.5989108  
H    4.3498552    0.0008611   -1.3200024  
H    2.7563627    0.0012824    0.6148060  
C    0.8300994   -0.6844015   -5.2562391  
C    0.0139739    0.0003876   -4.4216236  
C   -0.8783323    0.7449049   -5.2968290  
C   -0.4479328    0.3817386   -6.6641077  
N    0.5531118   -0.4558737   -6.6466448  
C   -1.0916053    0.9175272   -7.8318841  
C   -2.1188132    1.7767486   -7.6423656  
O   -2.8097756    2.3524303   -8.6409656  
C   -2.5767947    2.1624911   -6.2750262  
O   -3.5180034    2.9497820   -6.1774537  
C   -1.9003011    1.5993465   -5.0930157  
H   -0.7561566    0.6349278   -8.8190630  
H   -3.4737415    2.9084361   -8.1946931  
H   -2.2621711    1.9037640   -4.1200765  
H    1.6332283   -1.3557597   -4.9969405  
C    2.5528530    2.1414826    2.8079335  
C    2.0663498    1.7338582    4.0032312  
C    0.9804344    0.8229586    3.6752840  
C    0.9495562    0.7966882    2.1971295  
N    1.8690446    1.5676019    1.6831036  
C    0.0000000    0.0000000    1.4700000  
C   -0.8785127   -0.7372425    2.1869543  
O   -1.8187535   -1.5261249    1.6395491  
C   -0.8723269   -0.7321790    3.6796354  
O   -1.7010379   -1.4274584    4.2670412  
C    0.1115397    0.0933559    4.4024240  
H    2.4028853    2.0163452    4.9860947  
H   -2.2861435   -1.9184361    2.3990168  
H    0.0832434    0.0693689    5.4835595  
H    3.3664920    2.8238276    2.6198634  
