44
34B 39B 5B 19B 41 43 12 25 7 4 7 7 2 1 1 0 nosym
C    3.1301149   -0.0010311   -1.7028252  
C    2.5367766   -0.0002767   -0.4864665  
C    1.1089904    0.0001028   -0.7656183  
C    1.0177870   -0.0004148   -2.2415132  
N    2.1993578   -0.0011611   -2.7963820  
C   -0.2459213   -0.0002877   -2.9257118  
C   -1.3675317   -0.0000605   -2.1698525  
O   -2.6129311    0.0000867   -2.6748493  
C   -1.3083587    0.0000910   -0.6783232  
O   -2.3693264    0.0004206   -0.0541692  
C    0.0000000    0.0000000    0.0000000  
H    3.0096016   -0.0001007    0.4807523  
H   -0.2829632   -0.0004687   -4.0053124  
H   -3.1967439    0.0002094   -1.8949037  
C    5.6039776   -0.0014373   -1.1379127  
C    4.5679461   -0.0016854   -2.0086701  
C    5.1852101   -0.0028977   -3.3260476  
C    6.6391264   -0.0031438   -3.0563959  
N    6.8907017   -0.0023715   -1.7754982  
C    7.6095175   -0.0043137   -4.1163134  
C    7.1484099   -0.0055865   -5.3878133  
O    7.9405124   -0.0067608   -6.4734527  
C    5.6870985   -0.0057479   -5.6923308  
O    5.3390445   -0.0068140   -6.8730415  
C    4.7115725   -0.0044883   -4.5876717  
H    8.6658408   -0.0042614   -3.8902808  
H    7.3255402   -0.0075179   -7.2290722  
H    3.6621311   -0.0047654   -4.8501659  
H    5.5656910   -0.0006310   -0.0601802  
C    0.0000000    0.0000000    1.4700000  
C    1.0662921    0.0000102    2.3034270  
C    0.4961870   -0.0000064    3.6418889  
C   -0.9663858    0.0000850    3.4240247  
N   -1.2632773    0.0000084    2.1528658  
C   -1.8985362    0.0000517    4.5177257  
C   -1.3925775   -0.0004564    5.7720543  
O   -2.1456383   -0.0005410    6.8851312  
C    0.0786232   -0.0009323    6.0245000  
O    0.4683759   -0.0012588    7.1921102  
C    1.0143166   -0.0008442    4.8859032  
H    2.1107198   -0.0000632    2.0421868  
H   -2.9622183    0.0003270    4.3293377  
H   -1.5042274   -0.0009692    7.6184419  
H    2.0724152   -0.0013148    5.1109744  
