46
36B 17A 26B 42 27 29 7 3 4 1 0 2 0 nosym
C    1.1243415    0.0099154   -0.7919009  
C    0.7474086    0.0234032   -2.1148547  
C   -0.6787371    0.0234950   -2.1414700  
C   -1.1201741    0.0099356   -0.7935548  
N    0.0000000    0.0000000    0.0000000  
C   -2.4730813    0.0065397   -0.4408236  
C   -3.3971949    0.0173298   -1.4675053  
O   -4.7313511    0.0149489   -1.1793459  
C   -2.9763635    0.0305536   -2.8186319  
O   -4.0166455    0.0397857   -3.7247614  
C   -1.6418548    0.0336378   -3.1673479  
H    1.4178728    0.0310000   -2.9571213  
H   -2.8160170   -0.0039188    0.5845970  
H   -5.1938805    0.0234411   -2.0274374  
H   -3.6464652    0.0484778   -4.6127335  
H    2.1062467    0.0051380   -0.3505414  
C   -0.1937289   -0.6738798   -5.1271222  
C   -0.0849058   -0.4442805   -6.4611075  
C   -1.1307533    0.4862721   -6.8148172  
C   -1.8630305    0.7821277   -5.5686112  
N   -1.2456309    0.0472573   -4.5828763  
C   -2.9255824    1.6218868   -5.4820504  
C   -3.3783231    2.2779477   -6.6974291  
O   -4.3264437    3.0517092   -6.7231429  
C   -2.6177619    1.9791132   -8.0286125  
O   -2.9900136    2.5253764   -9.0583144  
C   -1.4863909    1.0556436   -7.9961198  
H    0.6446254   -0.8775064   -7.1219503  
H   -3.4485921    1.8252439   -4.5579203  
H   -0.9650093    0.8542341   -8.9220353  
H    0.4058895   -1.3093928   -4.4958768  
C    0.8175213    0.6860729    2.3021913  
C    0.0000000    0.0000000    1.4700000  
C   -0.8887526   -0.7456559    2.3478473  
C   -0.4549825   -0.3816753    3.7138435  
N    0.5448156    0.4573574    3.6934124  
C   -1.0945674   -0.9182058    4.8835240  
C   -2.1210866   -1.7789155    4.6970523  
O   -2.8083856   -2.3554314    5.6976972  
C   -2.5824069   -2.1655116    3.3310774  
O   -3.5227682   -2.9541547    3.2362962  
C   -1.9100805   -1.6015804    2.1470656  
H   -0.7567140   -0.6349833    5.8697035  
H   -3.4728268   -2.9124471    5.2533954  
H   -2.2742832   -1.9066565    1.1752040  
H    1.6189533    1.3585343    2.0405121  
