44
29A 30A 39B 19B 24B 43 40 42 26 28 2 3 4 7 4 3 0 2 0 nosym
C    1.0965514    0.0001359   -0.8010305  
C    0.0000000    0.0000000    0.0000000  
C   -1.1546565    0.0001470   -0.8669508  
C   -0.6372019    0.0003521   -2.2486278  
N    0.7342868    0.0007339   -2.1395011  
C   -1.4147745    0.0001355   -3.3608712  
C   -2.8576054   -0.0001045   -3.1854454  
O   -3.6427786   -0.0002490   -4.1244897  
C   -3.4275844   -0.0000724   -1.7311659  
O   -4.6406828    0.0000334   -1.5710047  
C   -2.4891866   -0.0001090   -0.6116741  
H   -1.0150455    0.0001619   -4.3654242  
H   -2.8919121   -0.0002919    0.3920869  
H    2.1388271    0.0000663   -0.5261648  
C    1.6707637   -0.0012341   -3.2725974  
C    3.0236196   -0.0022046   -3.2357230  
C    3.4368537   -0.0040631   -4.6306187  
C    2.1706886   -0.0040762   -5.3944316  
N    1.1320371   -0.0023410   -4.6037427  
C    2.1489256   -0.0056431   -6.8313067  
C    3.3380080   -0.0067405   -7.4758352  
O    3.4666338   -0.0082560   -8.8135551  
C    4.6328538   -0.0063880   -6.7331816  
O    5.6771178   -0.0075679   -7.3848963  
C    4.6287468   -0.0048152   -5.2594436  
H    3.6622542   -0.0016291   -2.3689926  
H    1.2090095   -0.0058214   -7.3637233  
H    4.4282052   -0.0087160   -8.9701847  
H    5.5877284   -0.0044916   -4.7588601  
C    2.5528530    2.1414826    2.8079335  
C    2.0663498    1.7338582    4.0032312  
C    0.9804344    0.8229586    3.6752840  
C    0.9495562    0.7966882    2.1971295  
N    1.8690446    1.5676019    1.6831036  
C    0.0000000    0.0000000    1.4700000  
C   -0.8785127   -0.7372425    2.1869543  
O   -1.8187535   -1.5261249    1.6395491  
C   -0.8723269   -0.7321790    3.6796354  
O   -1.7010379   -1.4274584    4.2670412  
C    0.1115397    0.0933559    4.4024240  
H    2.4028853    2.0163452    4.9860947  
H   -2.2861435   -1.9184361    2.3990168  
H    0.0832434    0.0693689    5.4835595  
H    3.3664920    2.8238276    2.6198634  
