44
29A 34B 10A 14A 15B 24B 43 41 12 27 25 26 2 7 4 2 3 4 2 1 3 0 nosym
C    3.2798086    0.0005856   -1.4499647  
C    2.5571145    0.0005565   -2.5996553  
C    1.1637436    0.0001547   -2.2210360  
C    1.1336964   -0.0000200   -0.7459470  
N    2.4483513   -0.0001429   -0.3402720  
C    0.0000000    0.0000000    0.0000000  
C   -1.2757371   -0.0000187   -0.6964417  
O   -2.3524597   -0.0000640   -0.1142316  
C   -1.2676493   -0.0000874   -2.2584081  
O   -2.3355762   -0.0004102   -2.8557296  
C    0.0181561    0.0001758   -2.9516297  
H    2.9547354    0.0006074   -3.5989102  
H    0.0150792    0.0003317   -4.0331628  
H    2.7563626    0.0012823    0.6148063  
C    6.5739160    0.0018720   -4.3537887  
C    7.6280848    0.0019469   -3.4977496  
C    7.0842295    0.0017736   -2.1601931  
C    5.6162785    0.0015611   -2.3082157  
N    5.3720699    0.0020315   -3.6621919  
C    4.7390845    0.0009613   -1.2727278  
C    5.2766310    0.0007200    0.0776717  
O    4.5688486    0.0002470    1.0763432  
C    6.8281782    0.0011906    0.2579685  
O    7.2923830    0.0012994    1.3901234  
C    7.6713713    0.0015459   -0.9348758  
H    8.6679907    0.0022877   -3.7719906  
H    8.7446443    0.0016653   -0.8014216  
H    6.5739159    0.0019306   -5.4316987  
H    4.4610965    0.0004679   -4.0831095  
C    2.3971438    2.0127888    3.1728260  
C    1.9431056    1.6308205    1.9564670  
C    0.8496017    0.7127664    2.2356185  
C    0.7794028    0.6545384    3.7115134  
N    1.6840587    1.4146091    4.2663826  
C   -0.1885723   -0.1578550    4.3957118  
C   -1.0476298   -0.8789867    3.6398520  
O   -2.0015663   -1.6796266    4.1448486  
C   -1.0022026   -0.8410666    2.1483229  
O   -1.8147390   -1.5232959    1.5241687  
C    0.0000000    0.0000000    1.4700000  
H    2.3054237    1.9346118    0.9892483  
H   -0.2170646   -0.1815267    5.4753125  
H   -2.4487139   -2.0549881    3.3649027  
H    3.2048689    2.6911772    3.3971983  
