46
36B 41B 5A 20B 21B 43 45 13 30 27 7 4 7 1 7 2 1 2 0 nosym
C    0.0000000    0.0000000    0.0000000  
C    1.0521668   -0.0011901   -0.8862342  
C    0.4917217   -0.0011956   -2.1979133  
C   -0.9187428    0.0003148   -2.0478683  
N   -1.1833173   -0.0009411   -0.7007912  
C   -1.7951703    0.0010350   -3.1372089  
C   -1.2375839    0.0005225   -4.4010424  
O   -2.0474218    0.0015361   -5.4997581  
C    0.1673577   -0.0013566   -4.5711965  
O    0.5673522   -0.0020687   -5.8915550  
C    1.0325768   -0.0023412   -3.4969891  
H    2.0953058   -0.0030649   -0.6200564  
H   -2.0989775    0.0102371   -0.2891826  
H   -2.8710934    0.0020420   -3.0295514  
H   -1.4634887    0.0006497   -6.2693593  
H    1.5290707   -0.0033152   -5.9180043  
C    3.4024819   -0.7096510   -3.0037684  
C    2.4861699   -0.0045381   -3.7159923  
C    3.2126685    0.7356038   -4.7205943  
C    4.6375570    0.4014740   -4.5339409  
N    4.6850371   -0.4786081   -3.4774889  
C    5.6492882    0.8988712   -5.2893884  
C    5.3123645    1.8252912   -6.3574537  
O    6.1519763    2.3278821   -7.0928150  
C    3.8097568    2.1934335   -6.5729674  
O    3.5139835    2.9726009   -7.4688898  
C    2.8090508    1.5925986   -5.6946530  
H    6.6879099    0.6407516   -5.1359309  
H    1.7708576    1.8525207   -5.8505993  
H    3.2487382   -1.3784666   -2.1725415  
H    5.5222134   -0.8912445   -3.1088239  
C    0.0000000    0.0000000    1.4700000  
C    1.0662921    0.0000102    2.3034270  
C    0.4961870   -0.0000064    3.6418889  
C   -0.9663858    0.0000850    3.4240247  
N   -1.2632773    0.0000084    2.1528658  
C   -1.8985362    0.0000517    4.5177257  
C   -1.3925775   -0.0004564    5.7720543  
O   -2.1456383   -0.0005410    6.8851312  
C    0.0786232   -0.0009323    6.0245000  
O    0.4683759   -0.0012588    7.1921102  
C    1.0143166   -0.0008442    4.8859032  
H    2.1107198   -0.0000632    2.0421868  
H   -2.9622183    0.0003270    4.3293377  
H   -1.5042274   -0.0009692    7.6184419  
H    2.0724152   -0.0013148    5.1109744  
