44
5B 10B 15A 34B 12 14 28 40 7 4 2 7 2 1 1 0 nosym
C    0.0950451    0.0004353   -4.4015596  
C    1.1321308    0.0015829   -5.2710607  
C    0.5164644    0.0012883   -6.5891857  
C   -0.9377769   -0.0002316   -6.3212973  
N   -1.1909047   -0.0006566   -5.0407056  
C   -1.9068825   -0.0008960   -7.3823910  
C   -1.4442340    0.0003097   -8.6533306  
O   -2.2350200   -0.0001298   -9.7399302  
C    0.0174438    0.0022282   -8.9560775  
O    0.3669286    0.0031268  -10.1363657  
C    0.9916300    0.0028335   -7.8502351  
H    2.1849018    0.0026045   -5.0457878  
H   -2.9634783   -0.0022153   -7.1576397  
H   -1.6191327    0.0010349  -10.4948039  
H    2.0413875    0.0043491   -8.1114564  
C    3.3321174    0.0004715   -1.3379334  
C    2.6974186    0.0000117   -2.5332311  
C    1.2800441   -0.0002117   -2.2052840  
C    1.2395035    0.0000644   -0.7271298  
N    2.4394064    0.0005460   -0.2131035  
C    0.0000000    0.0000000    0.0000000  
C   -1.1468700    0.0000635   -0.7169545  
O   -2.3742202    0.0000072   -0.1695490  
C   -1.1388767    0.0001607   -2.2096356  
O   -2.2206230    0.0000906   -2.7970413  
C    0.1454525    0.0001817   -2.9324241  
H    3.1367988   -0.0000649   -3.5160947  
H   -2.9844345    0.0001026   -0.9290170  
H    4.3940040    0.0007620   -1.1498635  
C    0.8175213    0.6860729    2.3021913  
C    0.0000000    0.0000000    1.4700000  
C   -0.8887526   -0.7456559    2.3478473  
C   -0.4549825   -0.3816753    3.7138435  
N    0.5448156    0.4573574    3.6934124  
C   -1.0945674   -0.9182058    4.8835240  
C   -2.1210866   -1.7789155    4.6970523  
O   -2.8083856   -2.3554314    5.6976972  
C   -2.5824069   -2.1655116    3.3310774  
O   -3.5227682   -2.9541547    3.2362962  
C   -1.9100805   -1.6015804    2.1470656  
H   -0.7567140   -0.6349833    5.8697035  
H   -3.4728268   -2.9124471    5.2533954  
H   -2.2742832   -1.9066565    1.1752040  
H    1.6189533    1.3585343    2.0405121  
