44
29A 34B 10B 19B 24B 43 41 12 26 28 2 7 4 7 4 2 1 2 0 nosym
C    3.2798086    0.0005856   -1.4499647  
C    2.5571145    0.0005565   -2.5996553  
C    1.1637436    0.0001547   -2.2210360  
C    1.1336964   -0.0000200   -0.7459470  
N    2.4483513   -0.0001429   -0.3402720  
C    0.0000000    0.0000000    0.0000000  
C   -1.2757371   -0.0000187   -0.6964417  
O   -2.3524597   -0.0000640   -0.1142316  
C   -1.2676493   -0.0000874   -2.2584081  
O   -2.3355762   -0.0004102   -2.8557296  
C    0.0181561    0.0001758   -2.9516297  
H    2.9547354    0.0006074   -3.5989102  
H    0.0150792    0.0003317   -4.0331628  
H    2.7563626    0.0012823    0.6148063  
C    4.7390845    0.0009613   -1.2727278  
C    5.6949940    0.0015505   -2.2307553  
C    6.9549545    0.0016803   -1.5034320  
C    6.5623381    0.0012140   -0.0777965  
N    5.2646567    0.0007106    0.0636664  
C    7.5356717    0.0011402    0.9794205  
C    8.8418531    0.0011264    0.6283862  
O    9.8560143    0.0010678    1.5101561  
C    9.2698383    0.0012200   -0.8016449  
O   10.4759229    0.0013257   -1.0477764  
C    8.2523643    0.0013383   -1.8677921  
H    5.5615851    0.0017689   -3.2990615  
H    7.2204107    0.0010022    2.0126291  
H   10.6613099    0.0010471    0.9618391  
H    8.6033680    0.0012884   -2.8910349  
C    2.3971438    2.0127888    3.1728260  
C    1.9431056    1.6308205    1.9564670  
C    0.8496017    0.7127664    2.2356185  
C    0.7794028    0.6545384    3.7115134  
N    1.6840587    1.4146091    4.2663826  
C   -0.1885723   -0.1578550    4.3957118  
C   -1.0476298   -0.8789867    3.6398520  
O   -2.0015663   -1.6796266    4.1448486  
C   -1.0022026   -0.8410666    2.1483229  
O   -1.8147390   -1.5232959    1.5241687  
C    0.0000000    0.0000000    1.4700000  
H    2.3054237    1.9346118    0.9892483  
H   -0.2170646   -0.1815267    5.4753125  
H   -2.4487139   -2.0549881    3.3649027  
H    3.2048689    2.6911772    3.3971983  
