44
29A 30A 39B 14A 15A 24B 43 40 42 28 25 27 2 3 4 2 3 4 3 0 3 0 nosym
C    1.0965514    0.0001359   -0.8010305  
C    0.0000000    0.0000000    0.0000000  
C   -1.1546565    0.0001470   -0.8669508  
C   -0.6372019    0.0003521   -2.2486278  
N    0.7342868    0.0007339   -2.1395011  
C   -1.4147745    0.0001355   -3.3608712  
C   -2.8576054   -0.0001045   -3.1854454  
O   -3.6427786   -0.0002490   -4.1244897  
C   -3.4275844   -0.0000724   -1.7311659  
O   -4.6406828    0.0000334   -1.5710047  
C   -2.4891866   -0.0001090   -0.6116741  
H   -1.0150455    0.0001619   -4.3654242  
H   -2.8919121   -0.0002919    0.3920869  
H    2.1388271    0.0000663   -0.5261648  
C    4.4892970   -2.1441337   -2.6751664  
C    4.8760703   -1.7381809   -3.9069085  
C    3.8307837   -0.8270014   -4.3469397  
C    2.8653302   -0.7987566   -3.2272589  
N    3.2460492   -1.5688473   -2.2444045  
C    1.6707637   -0.0012341   -3.2725974  
C    1.4508813    0.7349197   -4.3857296  
O    0.3779849    1.5243971   -4.5636593  
C    2.4065721    0.7278586   -5.5323627  
O    2.1425165    1.4222301   -6.5138635  
C    3.6247984   -0.0984997   -5.4617876  
H    5.7614097   -2.0219346   -4.4498022  
H    0.5018301    1.9156229   -5.4472640  
H    4.2917524   -0.0759642   -6.3131953  
H    4.9961449   -2.8261076   -2.0110955  
C    2.5528530    2.1414826    2.8079335  
C    2.0663498    1.7338582    4.0032312  
C    0.9804344    0.8229586    3.6752840  
C    0.9495562    0.7966882    2.1971295  
N    1.8690446    1.5676019    1.6831036  
C    0.0000000    0.0000000    1.4700000  
C   -0.8785127   -0.7372425    2.1869543  
O   -1.8187535   -1.5261249    1.6395491  
C   -0.8723269   -0.7321790    3.6796354  
O   -1.7010379   -1.4274584    4.2670412  
C    0.1115397    0.0933559    4.4024240  
H    2.4028853    2.0163452    4.9860947  
H   -2.2861435   -1.9184361    2.3990168  
H    0.0832434    0.0693689    5.4835595  
H    3.3664920    2.8238276    2.6198634  
