46
36B 41B 10A 16A 17B 26B 43 45 15 29 27 28 7 4 4 2 3 4 2 1 3 0 nosym
C    0.0000000    0.0000000    0.0000000  
C    1.0521663   -0.0011902   -0.8862345  
C    0.4917214   -0.0011957   -2.1979134  
C   -0.9187430    0.0003148   -2.0478682  
N   -1.1833173   -0.0009412   -0.7007911  
C   -1.7951704    0.0010350   -3.1372089  
C   -1.2375842    0.0005225   -4.4010423  
O   -2.0474221    0.0015360   -5.4997574  
C    0.1673576   -0.0013567   -4.5711965  
O    0.5673515   -0.0020688   -5.8915554  
C    1.0325766   -0.0023413   -3.4969893  
H    2.0953056   -0.0030649   -0.6200564  
H   -2.0989777    0.0102372   -0.2891822  
H   -1.4634892    0.0006498   -6.2693592  
H    1.5290704   -0.0033153   -5.9180050  
H    2.1042142   -0.0039610   -3.6584459  
C   -4.4484711    2.1113801   -0.3461916  
C   -5.6480036    1.6479664   -0.7825912  
C   -5.3783989    0.7523419   -1.8825939  
C   -3.9129604    0.7317896   -2.0524730  
N   -3.4082522    1.5764913   -1.0908920  
C   -3.2578657    0.0024039   -2.9908504  
C   -4.0489129   -0.8169044   -3.8939082  
O   -3.5523657   -1.5094682   -4.7725989  
C   -5.6025004   -0.8101991   -3.7322727  
O   -6.2789651   -1.4957984   -4.4869979  
C   -6.1934214    0.0166875   -2.6830239  
H   -6.6117251    1.9044261   -0.3799962  
H   -7.2698071    0.0155976   -2.5775881  
H   -4.2368827    2.7988131    0.4566509  
H   -2.4341534    1.7724823   -0.9503004  
C    0.0000000    0.0000000    1.4700000  
C    1.0662921    0.0000102    2.3034270  
C    0.4961870   -0.0000064    3.6418889  
C   -0.9663858    0.0000850    3.4240247  
N   -1.2632773    0.0000084    2.1528658  
C   -1.8985362    0.0000517    4.5177257  
C   -1.3925775   -0.0004564    5.7720543  
O   -2.1456383   -0.0005410    6.8851312  
C    0.0786232   -0.0009323    6.0245000  
O    0.4683759   -0.0012588    7.1921102  
C    1.0143166   -0.0008442    4.8859032  
H    2.1107198   -0.0000632    2.0421868  
H   -2.9622183    0.0003270    4.3293377  
H   -1.5042274   -0.0009692    7.6184419  
H    2.0724152   -0.0013148    5.1109744  
