46
31A 32A 41B 16A 17A 26B 45 42 44 29 27 28 2 3 4 2 3 4 3 0 3 0 nosym
C    1.1243415    0.0099159   -0.7919008  
C    0.7474084    0.0234036   -2.1148547  
C   -0.6787372    0.0234950   -2.1414699  
C   -1.1201741    0.0099353   -0.7935545  
N    0.0000000    0.0000000    0.0000000  
C   -2.4730813    0.0065388   -0.4408235  
C   -3.3971951    0.0173288   -1.4675053  
O   -4.7313510    0.0149472   -1.1793456  
C   -2.9763637    0.0305528   -2.8186317  
O   -4.0166458    0.0397846   -3.7247611  
C   -1.6418550    0.0336375   -3.1673478  
H   -2.8160168   -0.0039199    0.5845974  
H   -5.1938811    0.0234395   -2.0274371  
H   -3.6464651    0.0484770   -4.6127333  
H   -1.3497452    0.0436785   -4.2109230  
H    2.1062467    0.0051388   -0.3505413  
C    4.5316307   -2.0782841   -2.8537110  
C    4.8145462   -1.6024550   -4.0937192  
C    3.7435679   -0.7036230   -4.4541940  
C    2.8068170   -0.6947189   -3.3143654  
N    3.3419169   -1.5485392   -2.3775897  
C    1.6628963    0.0337773   -3.2649305  
C    1.3321308    0.8643534   -4.4109117  
O    0.3242908    1.5570811   -4.4627602  
C    2.3097055    0.8700894   -5.6291561  
O    2.0415870    1.5652366   -6.5997970  
C    3.5120836    0.0429899   -5.5655543  
H    5.6751639   -1.8527106   -4.6881289  
H    4.1838766    0.0527324   -6.4130939  
H    5.0920576   -2.7715410   -2.2477354  
H    2.9324058   -1.7535422   -1.4846612  
C    2.5528530    2.1414826    2.8079335  
C    2.0663498    1.7338582    4.0032312  
C    0.9804344    0.8229586    3.6752840  
C    0.9495562    0.7966882    2.1971295  
N    1.8690446    1.5676019    1.6831036  
C    0.0000000    0.0000000    1.4700000  
C   -0.8785127   -0.7372425    2.1869543  
O   -1.8187535   -1.5261249    1.6395491  
C   -0.8723269   -0.7321790    3.6796354  
O   -1.7010379   -1.4274584    4.2670412  
C    0.1115397    0.0933559    4.4024240  
H    2.4028853    2.0163452    4.9860947  
H   -2.2861435   -1.9184361    2.3990168  
H    0.0832434    0.0693689    5.4835595  
H    3.3664920    2.8238276    2.6198634  
