46
31A 32A 41B 16A 21B 45 42 44 30 28 2 3 4 2 7 3 0 2 0 nosym
C    3.3041272    0.0001176   -1.5420431  
C    2.5845372   -0.0004781   -0.3695853  
C    1.2040006   -0.0000009   -0.7283588  
C    1.1422374    0.0006035   -2.1454372  
N    2.4348639    0.0026108   -2.6077465  
C   -0.0655182    0.0008795   -2.8497919  
C   -1.2321769    0.0002322   -2.1101399  
O   -2.4392814    0.0001143   -2.7472520  
C   -1.1911210   -0.0000008   -0.6955264  
O   -2.4371527   -0.0002321   -0.1032861  
C    0.0000000    0.0000000    0.0000000  
H    3.0031535   -0.0000660    0.6222584  
H   -0.1193549    0.0014841   -3.9297469  
H   -3.1132989   -0.0000650   -2.0551785  
H   -2.3200281   -0.0004071    0.8516412  
H    4.3686623    0.0004070   -1.7024293  
C    5.6086919   -2.0215431   -4.9939689  
C    4.8416738   -1.6314637   -3.9494116  
C    3.8592060   -0.7249417   -4.5234100  
C    4.1891001   -0.6815705   -5.9641990  
N    5.2136949   -1.4397091   -6.2460162  
C    3.4372233    0.1163827   -6.8931978  
C    2.4025655    0.8378964   -6.4051039  
O    1.6159682    1.6259444   -7.1576237  
C    2.0444995    0.8147846   -4.9561682  
O    1.0903370    1.4964965   -4.5819177  
C    2.8310664   -0.0116222   -4.0232753  
H    4.9314389   -1.9229648   -2.9169168  
H    3.7006449    0.1293712   -7.9407423  
H    0.9732438    2.0052473   -6.5313746  
H    6.4504504   -2.6955821   -4.9845923  
C    2.5528530    2.1414826    2.8079335  
C    2.0663498    1.7338582    4.0032312  
C    0.9804344    0.8229586    3.6752840  
C    0.9495562    0.7966882    2.1971295  
N    1.8690446    1.5676019    1.6831036  
C    0.0000000    0.0000000    1.4700000  
C   -0.8785127   -0.7372425    2.1869543  
O   -1.8187535   -1.5261249    1.6395491  
C   -0.8723269   -0.7321790    3.6796354  
O   -1.7010379   -1.4274584    4.2670412  
C    0.1115397    0.0933559    4.4024240  
H    2.4028853    2.0163452    4.9860947  
H   -2.2861435   -1.9184361    2.3990168  
H    0.0832434    0.0693689    5.4835595  
H    3.3664920    2.8238276    2.6198634  
