46
36B 0A 17B 26A 42 15 27 29 7 2 3 4 1 1 2 0 nosym
C    3.3041273    0.0001178   -1.5420431  
C    2.5845371   -0.0004779   -0.3695856  
C    1.2040005   -0.0000007   -0.7283590  
C    1.1422373    0.0006038   -2.1454373  
N    2.4348641    0.0026111   -2.6077466  
C   -0.0655181    0.0008799   -2.8497918  
C   -1.2321768    0.0002325   -2.1101399  
O   -2.4392816    0.0001148   -2.7472520  
C   -1.1911210   -0.0000007   -0.6955263  
O   -2.4371525   -0.0002320   -0.1032863  
C    0.0000000    0.0000000    0.0000000  
H    3.0031536   -0.0000660    0.6222581  
H    2.7054629   -0.0071097   -3.5745261  
H   -3.1132988   -0.0000648   -2.0551785  
H   -2.3200280   -0.0004071    0.8516411  
H    4.3686620    0.0004072   -1.7024293  
C    0.6887308   -0.7238759   -5.1615447  
C    0.3681061   -0.5064781   -6.4630873  
C   -0.7390722    0.4202661   -6.4747851  
C   -1.0393321    0.7271839   -5.0632486  
N   -0.1387082    0.0017019   -4.3179684  
C   -2.0224205    1.5671718   -4.6513476  
C   -2.8394473    2.2118217   -5.6659550  
O   -3.7493943    2.9848413   -5.3962566  
C   -2.5393026    1.9011591   -7.1670235  
O   -3.2207394    2.4377607   -8.0301367  
C   -1.4529086    0.9785916   -7.4871324  
H    0.8518655   -0.9453881   -7.3174580  
H   -2.2260444    1.7787428   -3.6108263  
H   -1.2514015    0.7689509   -8.5288471  
H    1.4597343   -1.3532679   -4.7476501  
C    0.8175213    0.6860729    2.3021913  
C    0.0000000    0.0000000    1.4700000  
C   -0.8887526   -0.7456559    2.3478473  
C   -0.4549825   -0.3816753    3.7138435  
N    0.5448156    0.4573574    3.6934124  
C   -1.0945674   -0.9182058    4.8835240  
C   -2.1210866   -1.7789155    4.6970523  
O   -2.8083856   -2.3554314    5.6976972  
C   -2.5824069   -2.1655116    3.3310774  
O   -3.5227682   -2.9541547    3.2362962  
C   -1.9100805   -1.6015804    2.1470656  
H   -0.7567140   -0.6349833    5.8697035  
H   -3.4728268   -2.9124471    5.2533954  
H   -2.2742832   -1.9066565    1.1752040  
H    1.6189533    1.3585343    2.0405121  
