44
29A 34B 15A 24B 43 41 25 27 2 7 3 4 2 0 2 0 nosym
C    1.0965514    0.0001359   -0.8010305  
C    0.0000000    0.0000000    0.0000000  
C   -1.1546565    0.0001470   -0.8669508  
C   -0.6372019    0.0003521   -2.2486278  
N    0.7342868    0.0007339   -2.1395011  
C   -1.4147745    0.0001355   -3.3608712  
C   -2.8576054   -0.0001045   -3.1854454  
O   -3.6427786   -0.0002490   -4.1244897  
C   -3.4275844   -0.0000724   -1.7311659  
O   -4.6406828    0.0000334   -1.5710047  
C   -2.4891866   -0.0001090   -0.6116741  
H   -1.0150455    0.0001619   -4.3654242  
H   -2.8919121   -0.0002919    0.3920869  
H    2.1388271    0.0000663   -0.5261648  
C    2.8497499   -0.7283600   -3.3359973  
C    3.4914337   -0.5134518   -4.5133381  
C    2.6832169    0.4132002   -5.2702642  
C    1.5096736    0.7227770   -4.4313672  
N    1.6707637   -0.0012341   -3.2725974  
C    0.5071662    1.5634841   -4.7917769  
C    0.5893837    2.2061573   -6.0928331  
O   -0.2632816    2.9796310   -6.5087665  
C    1.8232399    1.8926660   -6.9978894  
O    1.9032027    2.4275868   -8.0954897  
C    2.8399720    0.9695598   -6.4999104  
H    4.4243720   -0.9539521   -4.8169814  
H   -0.3448598    1.7770164   -4.1614078  
H    3.6912431    0.7579555   -7.1325913  
H    3.1388483   -1.3569180   -2.5094220  
C    2.3971438    2.0127888    3.1728260  
C    1.9431056    1.6308205    1.9564670  
C    0.8496017    0.7127664    2.2356185  
C    0.7794028    0.6545384    3.7115134  
N    1.6840587    1.4146091    4.2663826  
C   -0.1885723   -0.1578550    4.3957118  
C   -1.0476298   -0.8789867    3.6398520  
O   -2.0015663   -1.6796266    4.1448486  
C   -1.0022026   -0.8410666    2.1483229  
O   -1.8147390   -1.5232959    1.5241687  
C    0.0000000    0.0000000    1.4700000  
H    2.3054237    1.9346118    0.9892483  
H   -0.2170646   -0.1815267    5.4753125  
H   -2.4487139   -2.0549881    3.3649027  
H    3.2048689    2.6911772    3.3971983  
