44
29A 34B 10A 14A 18B 19B 43 41 12 27 28 26 2 7 4 2 1 7 2 1 3 0 nosym
C    0.0000000    0.0000000    0.0000000  
C    1.0541691   -0.0001722   -0.8560390  
C    0.5103141   -0.0000454   -2.1935956  
C   -0.9576367    0.0002459   -2.0455732  
N   -1.2018457   -0.0001391   -0.6915970  
C   -1.8348306    0.0008317   -3.0810611  
C   -1.2972839    0.0009737   -4.4314607  
O   -2.0050665    0.0014265   -5.4301319  
C    0.2542630    0.0004184   -4.6117571  
O    0.7184680    0.0002257   -5.7439119  
C    1.0974559    0.0000874   -3.4189128  
H    2.0940753   -0.0005483   -0.5817981  
H    2.1707284   -0.0000911   -3.5523666  
H   -2.1128191    0.0014912   -0.2706794  
C   -4.4922136    2.0924787   -0.2420898  
C   -3.4155269    1.6303225   -0.9285530  
C   -3.9166421    0.7353628   -1.9448039  
C   -5.3840556    0.7138752   -1.7930597  
N   -5.6687574    1.5568188   -0.7436406  
C   -6.2266206   -0.0146454   -2.5683317  
C   -5.6496876   -0.8323155   -3.6224186  
O   -6.3245421   -1.5240964   -4.3736254  
C   -4.0979609   -0.8249840   -3.8010124  
O   -3.6007578   -1.5096760   -4.6848939  
C   -3.2941069    0.0012874   -2.9038244  
H   -2.3875706    1.8869172   -0.7439485  
H   -7.3001877   -0.0161644   -2.4404186  
H   -4.5251472    2.7791513    0.5881426  
H   -6.5895633    1.7542195   -0.3969465  
C    3.1301144    0.0010313    3.1728260  
C    2.5367765    0.0002768    1.9564670  
C    1.1089900   -0.0001027    2.2356185  
C    1.0177864    0.0004150    3.7115134  
N    2.1993570    0.0011613    4.2663826  
C   -0.2459220    0.0002880    4.3957118  
C   -1.3675327    0.0000606    3.6398520  
O   -2.6129319   -0.0000866    4.1448486  
C   -1.3083589   -0.0000910    2.1483229  
O   -2.3693264   -0.0004206    1.5241687  
C    0.0000000    0.0000000    1.4700000  
H    3.0096015    0.0001008    0.9892483  
H   -0.2829642    0.0004689    5.4753125  
H   -3.1967446   -0.0002093    3.3649027  
H    4.1849273    0.0015113    3.3971983  
