48
33A 34A 43B 16A 17A 26B 47 44 46 32 27 31 2 3 4 2 3 4 3 0 3 0 nosym
C    3.3003551    0.0005277   -1.4738980  
C    2.5232820    0.0003498   -2.6090740  
C    1.1623207   -0.0001318   -2.1820099  
C    1.1711887    0.0000584   -0.7636138  
N    2.4852302   -0.0014919   -0.3662352  
C    0.0000000    0.0000000    0.0000000  
C   -1.2020382    0.0000521   -0.6806482  
O   -2.3759248    0.0003494    0.0157741  
C   -1.2314651   -0.0005111   -2.0955511  
O   -2.5054381   -0.0008036   -2.6250184  
C   -0.0764509   -0.0007271   -2.8495194  
H    2.8036266    0.0088182    0.5858670  
H   -3.0835635    0.0000348   -0.6418822  
H   -2.4360036   -0.0011526   -3.5845927  
H   -0.1304085   -0.0013419   -3.9319086  
H    4.3715552    0.0004895   -1.3667123  
C    5.9080455   -2.1212789   -4.5066905  
C    5.7372502   -1.6233277   -5.7776512  
C    4.6108303   -0.7493042   -5.7345063  
C    4.1315416   -0.7536527   -4.3995197  
N    4.9405892   -1.5984031   -3.6808710  
C    3.0267445   -0.0008950   -3.9901692  
C    2.3944499    0.7705367   -4.9458228  
O    1.3109376    1.5252432   -4.6002324  
C    2.8575152    0.7878056   -6.2830179  
O    2.1214428    1.6052993   -7.1156313  
C    3.9471980    0.0452332   -6.6876204  
H    6.3485809   -1.8616771   -6.6311484  
H    4.8499644   -1.7941735   -2.7003392  
H    1.0265043    1.9789022   -5.4043194  
H    2.4998696    1.5596274   -7.9989841  
H    4.2786876    0.0784980   -7.7188758  
H    6.6425538   -2.8091595   -4.1242292  
C    2.5528530    2.1414826    2.8079335  
C    2.0663498    1.7338582    4.0032312  
C    0.9804344    0.8229586    3.6752840  
C    0.9495562    0.7966882    2.1971295  
N    1.8690446    1.5676019    1.6831036  
C    0.0000000    0.0000000    1.4700000  
C   -0.8785127   -0.7372425    2.1869543  
O   -1.8187535   -1.5261249    1.6395491  
C   -0.8723269   -0.7321790    3.6796354  
O   -1.7010379   -1.4274584    4.2670412  
C    0.1115397    0.0933559    4.4024240  
H    2.4028853    2.0163452    4.9860947  
H   -2.2861435   -1.9184361    2.3990168  
H    0.0832434    0.0693689    5.4835595  
H    3.3664920    2.8238276    2.6198634  
