44
29A 34B 19B 43 41 25 2 7 7 2 0 1 0 nosym
C    1.0965514    0.0001359   -0.8010305  
C    0.0000000    0.0000000    0.0000000  
C   -1.1546565    0.0001470   -0.8669508  
C   -0.6372019    0.0003521   -2.2486278  
N    0.7342868    0.0007339   -2.1395011  
C   -1.4147745    0.0001355   -3.3608712  
C   -2.8576054   -0.0001045   -3.1854454  
O   -3.6427786   -0.0002490   -4.1244897  
C   -3.4275844   -0.0000724   -1.7311659  
O   -4.6406828    0.0000334   -1.5710047  
C   -2.4891866   -0.0001090   -0.6116741  
H   -1.0150455    0.0001619   -4.3654242  
H   -2.8919121   -0.0002919    0.3920869  
H    2.1388271    0.0000663   -0.5261648  
C    2.8307241   -0.6880603   -3.3923518  
C    1.6707637   -0.0012341   -3.2725974  
C    1.5453235    0.7428542   -4.5164211  
C    2.7497136    0.3772362   -5.2925349  
N    3.5069260   -0.4613278   -4.6387540  
C    3.0021429    0.9119183   -6.6022981  
C    2.0925351    1.7724245   -7.1136468  
O    2.2005205    2.3472972   -8.3235645  
C    0.8669340    2.1606457   -6.3551299  
O    0.0821135    2.9490007   -6.8821724  
C    0.6305983    1.5985966   -5.0134256  
H    3.8906744    0.6275247   -7.1468544  
H    1.4055991    2.9046145   -8.4051101  
H   -0.2691113    1.9048130   -4.4967205  
H    3.2814294   -1.3598176   -2.6792035  
C    2.3971438    2.0127888    3.1728260  
C    1.9431056    1.6308205    1.9564670  
C    0.8496017    0.7127664    2.2356185  
C    0.7794028    0.6545384    3.7115134  
N    1.6840587    1.4146091    4.2663826  
C   -0.1885723   -0.1578550    4.3957118  
C   -1.0476298   -0.8789867    3.6398520  
O   -2.0015663   -1.6796266    4.1448486  
C   -1.0022026   -0.8410666    2.1483229  
O   -1.8147390   -1.5232959    1.5241687  
C    0.0000000    0.0000000    1.4700000  
H    2.3054237    1.9346118    0.9892483  
H   -0.2170646   -0.1815267    5.4753125  
H   -2.4487139   -2.0549881    3.3649027  
H    3.2048689    2.6911772    3.3971983  
