44
34B 10A 14A 15B 24B 40 13 28 25 27 7 4 2 3 4 1 1 3 0 nosym
C    3.3321175    0.0004716   -1.3379333  
C    2.6974185    0.0000118   -2.5332309  
C    1.2800442   -0.0002116   -2.2052838  
C    1.2395036    0.0000644   -0.7271294  
N    2.4394064    0.0005460   -0.2131035  
C    0.0000000    0.0000000    0.0000000  
C   -1.1468696    0.0000635   -0.7169542  
O   -2.3742199    0.0000074   -0.1695490  
C   -1.1388767    0.0001608   -2.2096353  
O   -2.2206230    0.0000906   -2.7970411  
C    0.1454525    0.0001818   -2.9324239  
H    3.1367990   -0.0000649   -3.5160943  
H   -2.9844341    0.0001027   -0.9290168  
H    0.1083581    0.0003684   -4.0135593  
C    6.6781275    0.0000527   -4.1292978  
C    7.7444190    0.0009685   -3.2958711  
C    7.1743142    0.0014028   -1.9574090  
C    5.7117412    0.0007371   -2.1752730  
N    5.4148498   -0.0001362   -3.4464319  
C    4.7795908    0.0008674   -1.0815721  
C    5.2855494    0.0012391    0.1727565  
O    4.5324885    0.0014070    1.2858333  
C    6.7567501    0.0015422    0.4252023  
O    7.1465026    0.0019989    1.5928123  
C    7.6924433    0.0014448   -0.7133946  
H    8.7888464    0.0012171   -3.5571108  
H    5.1738998    0.0016451    2.0191441  
H    8.7505423    0.0015571   -0.4883232  
H    6.6781274   -0.0005125   -5.2077099  
C    0.8175213    0.6860729    2.3021913  
C    0.0000000    0.0000000    1.4700000  
C   -0.8887526   -0.7456559    2.3478473  
C   -0.4549825   -0.3816753    3.7138435  
N    0.5448156    0.4573574    3.6934124  
C   -1.0945674   -0.9182058    4.8835240  
C   -2.1210866   -1.7789155    4.6970523  
O   -2.8083856   -2.3554314    5.6976972  
C   -2.5824069   -2.1655116    3.3310774  
O   -3.5227682   -2.9541547    3.2362962  
C   -1.9100805   -1.6015804    2.1470656  
H   -0.7567140   -0.6349833    5.8697035  
H   -3.4728268   -2.9124471    5.2533954  
H   -2.2742832   -1.9066565    1.1752040  
H    1.6189533    1.3585343    2.0405121  
