46
36B 41B 20A 21B 43 45 30 27 7 4 1 7 2 0 2 0 nosym
C    1.1188644    0.0008216   -0.8003803  
C    0.0000000    0.0000000    0.0000000  
C   -1.1323861    0.0008904   -0.8673527  
C   -0.6382659    0.0019681   -2.1969278  
N    0.7324021    0.0038477   -2.1202237  
C   -1.4770909    0.0027323   -3.3154808  
C   -2.8395470    0.0020956   -3.0876857  
O   -3.7039197    0.0024441   -4.1440352  
C   -3.3517867    0.0013945   -1.7684331  
O   -4.7300488    0.0012387   -1.7073126  
C   -2.5248543    0.0009134   -0.6644818  
H    1.3576318   -0.0056175   -2.9057039  
H   -4.5940027    0.0021847   -3.7685134  
H   -4.9934597    0.0007284   -0.7819917  
H   -2.9462579    0.0005617    0.3339654  
H    2.1619892    0.0009343   -0.5342064  
C    0.0907987   -0.6992461   -5.1618157  
C   -0.9736289    0.0040466   -4.6965764  
C   -1.5084784    0.7463572   -5.8136019  
C   -0.6623474    0.4154838   -6.9760885  
N    0.2885837   -0.4649754   -6.5141238  
C   -0.8417392    0.9156036   -8.2248493  
C   -1.9414394    1.8417271   -8.4381326  
O   -2.1855828    2.3466278   -9.5261454  
C   -2.8501340    2.2064443   -7.2211437  
O   -3.7788892    2.9853321   -7.3884992  
C   -2.5575126    1.6028557   -5.9234903  
H   -0.2096919    0.6598496   -9.0639059  
H   -3.1915419    1.8604144   -5.0859974  
H    0.7475151   -1.3688068   -4.6304948  
H    1.0132766   -0.8758185   -7.0736556  
C    0.0000000    0.0000000    1.4700000  
C    1.0662921    0.0000102    2.3034270  
C    0.4961870   -0.0000064    3.6418889  
C   -0.9663858    0.0000850    3.4240247  
N   -1.2632773    0.0000084    2.1528658  
C   -1.8985362    0.0000517    4.5177257  
C   -1.3925775   -0.0004564    5.7720543  
O   -2.1456383   -0.0005410    6.8851312  
C    0.0786232   -0.0009323    6.0245000  
O    0.4683759   -0.0012588    7.1921102  
C    1.0143166   -0.0008442    4.8859032  
H    2.1107198   -0.0000632    2.0421868  
H   -2.9622183    0.0003270    4.3293377  
H   -1.5042274   -0.0009692    7.6184419  
H    2.0724152   -0.0013148    5.1109744  
