46
36B 0A 20B 21A 42 15 30 27 7 2 1 7 1 1 2 0 nosym
C    3.3003543    0.0005277   -1.4738990  
C    2.5232811    0.0003499   -2.6090749  
C    1.1623199   -0.0001317   -2.1820104  
C    1.1711881    0.0000584   -0.7636144  
N    2.4852300   -0.0014918   -0.3662360  
C    0.0000000    0.0000000    0.0000000  
C   -1.2020384    0.0000520   -0.6806478  
O   -2.3759250    0.0003494    0.0157748  
C   -1.2314658   -0.0005111   -2.0955509  
O   -2.5054391   -0.0008036   -2.6250178  
C   -0.0764518   -0.0007271   -2.8495195  
H    2.8919951   -0.0005617   -3.6205306  
H    2.8036264    0.0088181    0.5858657  
H   -3.0835640    0.0000348   -0.6418817  
H   -2.4360050   -0.0011525   -3.5845919  
H    4.3715549    0.0004896   -1.3667139  
C    0.6503151   -0.7058444   -5.1591996  
C   -0.1496418   -0.0015610   -4.3176961  
C   -1.0769621    0.7392934   -5.1399168  
C   -0.7493500    0.4064857   -6.5394522  
N    0.3066308   -0.4735891   -6.4823318  
C   -1.4003407    0.9048526   -7.6209078  
C   -2.4966979    1.8309959   -7.3911360  
O   -3.1448399    2.3343955   -8.2993226  
C   -2.8607670    2.1977447   -5.9171096  
O   -3.7817308    2.9766677   -5.7112816  
C   -2.0864157    1.5959461   -4.8344875  
H   -1.1442224    0.6476961   -8.6393299  
H   -2.3449688    1.8549056   -3.8167380  
H    1.4621431   -1.3748325   -4.9240830  
H    0.7568401   -0.8854579   -7.2790267  
C    0.8175213    0.6860729    2.3021913  
C    0.0000000    0.0000000    1.4700000  
C   -0.8887526   -0.7456559    2.3478473  
C   -0.4549825   -0.3816753    3.7138435  
N    0.5448156    0.4573574    3.6934124  
C   -1.0945674   -0.9182058    4.8835240  
C   -2.1210866   -1.7789155    4.6970523  
O   -2.8083856   -2.3554314    5.6976972  
C   -2.5824069   -2.1655116    3.3310774  
O   -3.5227682   -2.9541547    3.2362962  
C   -1.9100805   -1.6015804    2.1470656  
H   -0.7567140   -0.6349833    5.8697035  
H   -3.4728268   -2.9124471    5.2533954  
H   -2.2742832   -1.9066565    1.1752040  
H    1.6189533    1.3585343    2.0405121  
