46
31A 32A 41B 16A 20A 21B 45 42 44 29 30 28 2 3 4 2 1 7 3 0 3 0 nosym
C    1.1243415    0.0099154   -0.7919009  
C    0.7474086    0.0234032   -2.1148547  
C   -0.6787371    0.0234950   -2.1414700  
C   -1.1201741    0.0099356   -0.7935548  
N    0.0000000    0.0000000    0.0000000  
C   -2.4730813    0.0065397   -0.4408236  
C   -3.3971949    0.0173298   -1.4675053  
O   -4.7313511    0.0149489   -1.1793459  
C   -2.9763635    0.0305536   -2.8186319  
O   -4.0166455    0.0397857   -3.7247614  
C   -1.6418548    0.0336378   -3.1673479  
H    1.4178728    0.0310000   -2.9571213  
H   -2.8160170   -0.0039188    0.5845970  
H   -5.1938805    0.0234411   -2.0274374  
H   -3.6464652    0.0484778   -4.6127335  
H    2.1062467    0.0051380   -0.3505414  
C    1.5660788   -2.0370396   -5.3849792  
C    0.7246274   -1.5842387   -4.4200926  
C   -0.2036584   -0.6824502   -5.0603257  
C    0.1686080   -0.6467599   -6.4875378  
N    1.2487243   -1.4888376   -6.6184705  
C   -0.4698236    0.0915134   -7.4304389  
C   -1.5988268    0.9054418   -7.0116220  
O   -2.2388870    1.6052755   -7.7854801  
C   -2.0103981    0.8831251   -5.5049979  
O   -2.9591334    1.5645471   -5.1405447  
C   -1.2456309    0.0472573   -4.5828763  
H    0.7513037   -1.8513216   -3.3786665  
H   -0.1807757    0.1033919   -8.4721781  
H    2.3914616   -2.7249252   -5.2986877  
H    1.7308157   -1.6777918   -7.4780817  
C    2.5528530    2.1414826    2.8079335  
C    2.0663498    1.7338582    4.0032312  
C    0.9804344    0.8229586    3.6752840  
C    0.9495562    0.7966882    2.1971295  
N    1.8690446    1.5676019    1.6831036  
C    0.0000000    0.0000000    1.4700000  
C   -0.8785127   -0.7372425    2.1869543  
O   -1.8187535   -1.5261249    1.6395491  
C   -0.8723269   -0.7321790    3.6796354  
O   -1.7010379   -1.4274584    4.2670412  
C    0.1115397    0.0933559    4.4024240  
H    2.4028853    2.0163452    4.9860947  
H   -2.2861435   -1.9184361    2.3990168  
H    0.0832434    0.0693689    5.4835595  
H    3.3664920    2.8238276    2.6198634  
