48
33A 34A 43B 5A 20B 21B 47 44 46 13 27 28 2 3 4 7 1 7 3 1 2 0 nosym
C    3.3041269    0.0001177   -1.5420434  
C    2.5845370   -0.0004780   -0.3695856  
C    1.2040006   -0.0000007   -0.7283591  
C    1.1422372    0.0006038   -2.1454374  
N    2.4348634    0.0026110   -2.6077469  
C   -0.0655187    0.0008799   -2.8497915  
C   -1.2321772    0.0002326   -2.1101397  
O   -2.4392820    0.0001149   -2.7472517  
C   -1.1911209   -0.0000007   -0.6955263  
O   -2.4371523   -0.0002319   -0.1032858  
C    0.0000000    0.0000000    0.0000000  
H    3.0031535   -0.0000661    0.6222578  
H    2.7054623   -0.0071098   -3.5745264  
H   -0.1193555    0.0014846   -3.9297470  
H   -3.1132995   -0.0000646   -2.0551782  
H   -2.3200286   -0.0004070    0.8516413  
C    5.7158605    0.0004165   -0.7739110  
C    4.7577216    0.0005129   -1.7610467  
C    5.4466896    0.0027834   -3.0100135  
C    6.8350413    0.0037181   -2.7194898  
N    6.9633979    0.0041887   -1.3526900  
C    7.8161409    0.0056327   -3.7155962  
C    7.3879070    0.0063146   -5.0289100  
O    8.3036909    0.0078226   -6.0410122  
C    6.0070627    0.0057776   -5.3388885  
O    5.7412875    0.0070015   -6.6926632  
C    5.0386296    0.0041622   -4.3567166  
H    7.8332610   -0.0056985   -0.8514702  
H    8.8758770    0.0064975   -3.5007449  
H    7.7997537    0.0083638   -6.8652157  
H    4.7870502    0.0065092   -6.8152784  
H    3.9885435    0.0039688   -4.6246670  
H    5.6080642   -0.0005989    0.2972277  
C    2.5528530    2.1414826    2.8079335  
C    2.0663498    1.7338582    4.0032312  
C    0.9804344    0.8229586    3.6752840  
C    0.9495562    0.7966882    2.1971295  
N    1.8690446    1.5676019    1.6831036  
C    0.0000000    0.0000000    1.4700000  
C   -0.8785127   -0.7372425    2.1869543  
O   -1.8187535   -1.5261249    1.6395491  
C   -0.8723269   -0.7321790    3.6796354  
O   -1.7010379   -1.4274584    4.2670412  
C    0.1115397    0.0933559    4.4024240  
H    2.4028853    2.0163452    4.9860947  
H   -2.2861435   -1.9184361    2.3990168  
H    0.0832434    0.0693689    5.4835595  
H    3.3664920    2.8238276    2.6198634  
