46
31A 32A 41B 21B 26B 45 42 44 28 29 2 3 4 7 4 3 0 2 0 nosym
C    1.1243415    0.0099154   -0.7919009  
C    0.7474086    0.0234032   -2.1148547  
C   -0.6787371    0.0234950   -2.1414700  
C   -1.1201741    0.0099356   -0.7935548  
N    0.0000000    0.0000000    0.0000000  
C   -2.4730813    0.0065397   -0.4408236  
C   -3.3971949    0.0173298   -1.4675053  
O   -4.7313511    0.0149489   -1.1793459  
C   -2.9763635    0.0305536   -2.8186319  
O   -4.0166455    0.0397857   -3.7247614  
C   -1.6418548    0.0336378   -3.1673479  
H    1.4178728    0.0310000   -2.9571213  
H   -2.8160170   -0.0039188    0.5845970  
H   -5.1938805    0.0234411   -2.0274374  
H   -3.6464652    0.0484778   -4.6127335  
H    2.1062467    0.0051380   -0.3505414  
C   -1.2456309    0.0472573   -4.5828763  
C    0.0002591    0.0520895   -5.1230709  
C   -0.1629424    0.0661186   -6.5576453  
C   -1.6164611    0.0691141   -6.8107555  
N   -2.2165824    0.0568625   -5.5727757  
C   -2.1820838    0.0817290   -8.0442935  
C   -1.3004459    0.0928898   -9.1997695  
O   -1.7128505    0.1045604  -10.3521961  
C    0.2422742    0.0896974   -8.9552088  
O    0.9944596    0.0987052   -9.9202984  
C    0.7327405    0.0759737   -7.5793067  
H    0.9277587    0.0462854   -4.5787140  
H   -3.2507708    0.0838361   -8.2080413  
H    1.8022616    0.0740520   -7.4185428  
H   -3.2072939    0.0571222   -5.4129706  
C    2.5528530    2.1414826    2.8079335  
C    2.0663498    1.7338582    4.0032312  
C    0.9804344    0.8229586    3.6752840  
C    0.9495562    0.7966882    2.1971295  
N    1.8690446    1.5676019    1.6831036  
C    0.0000000    0.0000000    1.4700000  
C   -0.8785127   -0.7372425    2.1869543  
O   -1.8187535   -1.5261249    1.6395491  
C   -0.8723269   -0.7321790    3.6796354  
O   -1.7010379   -1.4274584    4.2670412  
C    0.1115397    0.0933559    4.4024240  
H    2.4028853    2.0163452    4.9860947  
H   -2.2861435   -1.9184361    2.3990168  
H    0.0832434    0.0693689    5.4835595  
H    3.3664920    2.8238276    2.6198634  
