48
38B 43B 5A 16A 20B 21B 45 47 13 32 28 29 7 4 7 2 1 7 2 1 3 0 nosym
C    0.0000000    0.0000000    0.0000000  
C    1.0521668   -0.0011901   -0.8862342  
C    0.4917217   -0.0011956   -2.1979133  
C   -0.9187428    0.0003148   -2.0478683  
N   -1.1833173   -0.0009411   -0.7007912  
C   -1.7951703    0.0010350   -3.1372089  
C   -1.2375839    0.0005225   -4.4010424  
O   -2.0474218    0.0015361   -5.4997581  
C    0.1673577   -0.0013566   -4.5711965  
O    0.5673522   -0.0020687   -5.8915550  
C    1.0325768   -0.0023412   -3.4969891  
H    2.0953058   -0.0030649   -0.6200564  
H   -2.0989775    0.0102371   -0.2891826  
H   -2.8710934    0.0020420   -3.0295514  
H   -1.4634887    0.0006497   -6.2693593  
H    1.5290707   -0.0033152   -5.9180043  
C    4.3850065   -2.1302628   -1.4420384  
C    3.1441269   -1.6664980   -1.8129925  
C    3.3426798   -0.7794194   -2.9122051  
C    4.7370096   -0.7413798   -3.1697395  
N    5.3406652   -1.5712836   -2.2578860  
C    5.2968236    0.0339843   -4.1896447  
C    4.4333107    0.7843869   -4.9638665  
O    4.9266681    1.5591317   -5.9735108  
C    3.0391105    0.7599365   -4.7221540  
O    2.3124198    1.5614494   -5.5782154  
C    2.4861699   -0.0045381   -3.7159923  
H    2.2107768   -1.9337380   -1.3477689  
H    6.3263418   -1.7540856   -2.2030554  
H    6.3586900    0.0674336   -4.3909475  
H    4.1660104    1.9932088   -6.3812373  
H    1.3813912    1.4874683   -5.3473123  
H    4.6641251   -2.8144409   -0.6591257  
C    0.0000000    0.0000000    1.4700000  
C    1.0662921    0.0000102    2.3034270  
C    0.4961870   -0.0000064    3.6418889  
C   -0.9663858    0.0000850    3.4240247  
N   -1.2632773    0.0000084    2.1528658  
C   -1.8985362    0.0000517    4.5177257  
C   -1.3925775   -0.0004564    5.7720543  
O   -2.1456383   -0.0005410    6.8851312  
C    0.0786232   -0.0009323    6.0245000  
O    0.4683759   -0.0012588    7.1921102  
C    1.0143166   -0.0008442    4.8859032  
H    2.1107198   -0.0000632    2.0421868  
H   -2.9622183    0.0003270    4.3293377  
H   -1.5042274   -0.0009692    7.6184419  
H    2.0724152   -0.0013148    5.1109744  
