44
34B 39B 14A 15A 24B 41 43 27 25 26 7 4 2 3 4 2 0 3 0 nosym
C    3.2798086    0.0005858   -1.4499646  
C    2.5571145    0.0005567   -2.5996553  
C    1.1637436    0.0001549   -2.2210360  
C    1.1336963   -0.0000199   -0.7459471  
N    2.4483514   -0.0001427   -0.3402720  
C    0.0000000    0.0000000    0.0000000  
C   -1.2757367   -0.0000186   -0.6964417  
O   -2.3524597   -0.0000640   -0.1142315  
C   -1.2676494   -0.0000872   -2.2584082  
O   -2.3355761   -0.0004100   -2.8557297  
C    0.0181560    0.0001762   -2.9516297  
H    0.0150792    0.0003321   -4.0331631  
H    4.3498549    0.0008613   -1.3200019  
H    2.7563626    0.0012824    0.6148062  
C    5.9736434   -2.1043579   -4.3829118  
C    5.8838296   -1.6403858   -5.6559939  
C    4.7509390   -0.7462249   -5.6992518  
C    4.1840562   -0.7271400   -4.3372422  
N    4.9705835   -1.5712077   -3.5876998  
C    3.1006058    0.0006265   -3.9654949  
C    2.4492227    0.8196159   -4.9742028  
O    1.4668596    1.5107654   -4.7384561  
C    3.0324365    0.8144457   -6.4232161  
O    2.4922732    1.4997918   -7.2809953  
C    4.2049277   -0.0107539   -6.7027912  
H    6.5365801   -1.8955556   -6.4717258  
H    4.6026952   -0.0086077   -7.7085250  
H    6.6880815   -2.7910787   -3.9587855  
H    4.8377541   -1.7678910   -2.6126514  
C    0.0000000    0.0000000    1.4700000  
C    1.0662921    0.0000102    2.3034270  
C    0.4961870   -0.0000064    3.6418889  
C   -0.9663858    0.0000850    3.4240247  
N   -1.2632773    0.0000084    2.1528658  
C   -1.8985362    0.0000517    4.5177257  
C   -1.3925775   -0.0004564    5.7720543  
O   -2.1456383   -0.0005410    6.8851312  
C    0.0786232   -0.0009323    6.0245000  
O    0.4683759   -0.0012588    7.1921102  
C    1.0143166   -0.0008442    4.8859032  
H    2.1107198   -0.0000632    2.0421868  
H   -2.9622183    0.0003270    4.3293377  
H   -1.5042274   -0.0009692    7.6184419  
H    2.0724152   -0.0013148    5.1109744  
