44
5B 10B 29A 34B 12 14 43 41 7 4 2 7 2 0 2 0 nosym
C   -0.8287671    0.0000935   -4.7555305  
C    0.4848183    0.0005137   -5.0812193  
C    0.5106012    0.0006419   -6.5358099  
C   -0.9135388    0.0001374   -6.9338161  
N   -1.7033612   -0.0001048   -5.8945040  
C   -1.3181690    0.0001435   -8.3127145  
C   -0.3443522    0.0010204   -9.2513373  
O   -0.5775778    0.0011270  -10.5748351  
C    1.1017785    0.0019181   -8.8813817  
O    1.9341168    0.0025672   -9.7882629  
C    1.4913200    0.0018495   -7.4600500  
H    1.3316906    0.0008022   -4.4164765  
H   -2.3661196   -0.0004379   -8.5748361  
H    0.3072615    0.0018585  -10.9825256  
H    2.5491446    0.0026319   -7.2336960  
C    1.0672566   -0.0000698   -0.8321912  
C    0.0000000    0.0000000    0.0000000  
C   -1.1601226   -0.0000736   -0.8778472  
C   -0.5938732   -0.0000770   -2.2438435  
N    0.7113365   -0.0001555   -2.2234123  
C   -1.4286989   -0.0001880   -3.4135239  
C   -2.7683117   -0.0006800   -3.2270522  
O   -3.6653907   -0.0008306   -4.2276967  
C   -3.3702026   -0.0010611   -1.8610771  
O   -4.5974909   -0.0013781   -1.7662957  
C   -2.4926826   -0.0008944   -0.6770655  
H   -4.5324249   -0.0012263   -3.7833950  
H   -2.9677773   -0.0012975    0.2947963  
H    2.1134390   -0.0000546   -0.5705121  
C    2.3971438    2.0127888    3.1728260  
C    1.9431056    1.6308205    1.9564670  
C    0.8496017    0.7127664    2.2356185  
C    0.7794028    0.6545384    3.7115134  
N    1.6840587    1.4146091    4.2663826  
C   -0.1885723   -0.1578550    4.3957118  
C   -1.0476298   -0.8789867    3.6398520  
O   -2.0015663   -1.6796266    4.1448486  
C   -1.0022026   -0.8410666    2.1483229  
O   -1.8147390   -1.5232959    1.5241687  
C    0.0000000    0.0000000    1.4700000  
H    2.3054237    1.9346118    0.9892483  
H   -0.2170646   -0.1815267    5.4753125  
H   -2.4487139   -2.0549881    3.3649027  
H    3.2048689    2.6911772    3.3971983  
