44
5B 10B 15A 29A 34B 12 14 28 43 41 7 4 2 2 7 2 1 2 0 nosym
C   -0.2963294   -0.0005341   -4.3948471  
C    0.7407566   -0.0008426   -5.2643483  
C    0.1250899   -0.0009653   -6.5824732  
C   -1.3291521   -0.0008025   -6.3145845  
N   -1.5822798   -0.0004688   -5.0339928  
C   -2.2982581   -0.0008137   -7.3756781  
C   -1.8356089   -0.0005910   -8.6466179  
O   -2.6263952   -0.0005807   -9.7332175  
C   -0.3739299   -0.0003763   -8.9493653  
O   -0.0244446   -0.0003034  -10.1296537  
C    0.6002567   -0.0004130   -7.8435231  
H    1.7935282   -0.0008809   -5.0390757  
H   -3.3548547   -0.0008991   -7.1509265  
H   -2.0105071   -0.0003708  -10.4880914  
H    1.6500152   -0.0001376   -8.1047447  
C    3.1301143   -0.0010313   -1.7028257  
C    2.5367765   -0.0002767   -0.4864669  
C    1.1089900    0.0001027   -0.7656184  
C    1.0177864   -0.0004150   -2.2415133  
N    2.1993571   -0.0011613   -2.7963824  
C   -0.2459220   -0.0002879   -2.9257116  
C   -1.3675327   -0.0000606   -2.1698519  
O   -2.6129319    0.0000866   -2.6748482  
C   -1.3083588    0.0000910   -0.6783229  
O   -2.3693264    0.0004206   -0.0541685  
C    0.0000000    0.0000000    0.0000000  
H    3.0096014   -0.0001008    0.4807517  
H   -3.1967445    0.0002093   -1.8949025  
H    4.1849272   -0.0015113   -1.9271980  
C    2.3971438    2.0127888    3.1728260  
C    1.9431056    1.6308205    1.9564670  
C    0.8496017    0.7127664    2.2356185  
C    0.7794028    0.6545384    3.7115134  
N    1.6840587    1.4146091    4.2663826  
C   -0.1885723   -0.1578550    4.3957118  
C   -1.0476298   -0.8789867    3.6398520  
O   -2.0015663   -1.6796266    4.1448486  
C   -1.0022026   -0.8410666    2.1483229  
O   -1.8147390   -1.5232959    1.5241687  
C    0.0000000    0.0000000    1.4700000  
H    2.3054237    1.9346118    0.9892483  
H   -0.2170646   -0.1815267    5.4753125  
H   -2.4487139   -2.0549881    3.3649027  
H    3.2048689    2.6911772    3.3971983  
