44
29A 34B 0A 14A 15B 24A 43 41 12 27 25 26 2 7 2 2 3 4 2 1 3 0 nosym
C    3.2573671   -0.0002919   -1.5109380  
C    2.5379468   -0.0001709   -0.3591959  
C    1.1435044    0.0000332   -0.7338500  
C    1.1092611   -0.0000081   -2.2088474  
N    2.4227564    0.0001910   -2.6182609  
C   -0.0265530   -0.0002522   -2.9515663  
C   -1.3003034   -0.0002639   -2.2514982  
O   -2.3786783   -0.0004131   -2.8306430  
C   -1.2877725    0.0000312   -0.6895609  
O   -2.3539957    0.0003306   -0.0892038  
C    0.0000000    0.0000000    0.0000000  
H    2.9384088   -0.0000368    0.6389240  
H    4.3270397   -0.0004764   -1.6439442  
H    2.7280495   -0.0013405   -3.5742112  
C    2.4782026   -2.1081877   -5.8783638  
C    1.9212522   -1.6438942   -7.0265417  
C    0.8545989   -0.7486152   -6.6450159  
C    0.8356637   -0.7292245   -5.1698698  
N    1.8439058   -1.5742005   -4.7669394  
C   -0.0307349   -0.0004645   -4.4215603  
C   -1.0100797    0.8193481   -5.1153372  
O   -1.8333381    1.5114169   -4.5308827  
C   -1.0083715    0.8138720   -6.6773145  
O   -1.8284250    1.4999047   -7.2724046  
C   -0.0251090   -0.0124252   -7.3732162  
H    2.2230627   -1.8995541   -8.0266227  
H   -0.0304428   -0.0104845   -8.4547392  
H    3.2985201   -2.7956864   -5.7506347  
H    2.0835086   -1.7709324   -3.8125106  
C    2.3971438    2.0127888    3.1728260  
C    1.9431056    1.6308205    1.9564670  
C    0.8496017    0.7127664    2.2356185  
C    0.7794028    0.6545384    3.7115134  
N    1.6840587    1.4146091    4.2663826  
C   -0.1885723   -0.1578550    4.3957118  
C   -1.0476298   -0.8789867    3.6398520  
O   -2.0015663   -1.6796266    4.1448486  
C   -1.0022026   -0.8410666    2.1483229  
O   -1.8147390   -1.5232959    1.5241687  
C    0.0000000    0.0000000    1.4700000  
H    2.3054237    1.9346118    0.9892483  
H   -0.2170646   -0.1815267    5.4753125  
H   -2.4487139   -2.0549881    3.3649027  
H    3.2048689    2.6911772    3.3971983  
