46
36B 21B 42 27 7 7 1 0 1 0 nosym
C    3.3041272    0.0001176   -1.5420431  
C    2.5845372   -0.0004781   -0.3695853  
C    1.2040006   -0.0000009   -0.7283588  
C    1.1422374    0.0006035   -2.1454372  
N    2.4348639    0.0026108   -2.6077465  
C   -0.0655182    0.0008795   -2.8497919  
C   -1.2321769    0.0002322   -2.1101399  
O   -2.4392814    0.0001143   -2.7472520  
C   -1.1911210   -0.0000008   -0.6955264  
O   -2.4371527   -0.0002321   -0.1032861  
C    0.0000000    0.0000000    0.0000000  
H    3.0031535   -0.0000660    0.6222584  
H   -0.1193549    0.0014841   -3.9297469  
H   -3.1132989   -0.0000650   -2.0551785  
H   -2.3200281   -0.0004071    0.8516412  
H    4.3686623    0.0004070   -1.7024293  
C    3.8455951   -0.6998093   -4.5966068  
C    2.8310664   -0.0116222   -4.0232753  
C    2.2085836    0.7190730   -5.1164810  
C    2.9960448    0.3450198   -6.3108735  
N    3.9569626   -0.4865466   -6.0123368  
C    2.6930692    0.8655753   -7.6156012  
C    1.6505601    1.7206277   -7.7223468  
O    1.2559038    2.2824585   -8.8776104  
C    0.8364764    2.1170959   -6.5356535  
O   -0.0980390    2.8998205   -6.7066631  
C    1.1672375    1.5695165   -5.2079942  
H    3.2854439    0.5752605   -8.4710069  
H    0.4938941    2.8389457   -8.6350912  
H    0.5532532    1.8813547   -4.3737223  
H    4.5497452   -1.3639108   -4.1210908  
C    0.8175213    0.6860729    2.3021913  
C    0.0000000    0.0000000    1.4700000  
C   -0.8887526   -0.7456559    2.3478473  
C   -0.4549825   -0.3816753    3.7138435  
N    0.5448156    0.4573574    3.6934124  
C   -1.0945674   -0.9182058    4.8835240  
C   -2.1210866   -1.7789155    4.6970523  
O   -2.8083856   -2.3554314    5.6976972  
C   -2.5824069   -2.1655116    3.3310774  
O   -3.5227682   -2.9541547    3.2362962  
C   -1.9100805   -1.6015804    2.1470656  
H   -0.7567140   -0.6349833    5.8697035  
H   -3.4728268   -2.9124471    5.2533954  
H   -2.2742832   -1.9066565    1.1752040  
H    1.6189533    1.3585343    2.0405121  
