46
31A 32A 41B 0A 17B 26A 45 42 44 15 27 29 2 3 4 2 3 4 3 1 2 0 nosym
C    3.3041273    0.0001178   -1.5420431  
C    2.5845371   -0.0004779   -0.3695856  
C    1.2040005   -0.0000007   -0.7283590  
C    1.1422373    0.0006038   -2.1454373  
N    2.4348641    0.0026111   -2.6077466  
C   -0.0655181    0.0008799   -2.8497918  
C   -1.2321768    0.0002325   -2.1101399  
O   -2.4392816    0.0001148   -2.7472520  
C   -1.1911210   -0.0000007   -0.6955263  
O   -2.4371525   -0.0002320   -0.1032863  
C    0.0000000    0.0000000    0.0000000  
H    3.0031536   -0.0000660    0.6222581  
H    2.7054629   -0.0071097   -3.5745261  
H   -3.1132988   -0.0000648   -2.0551785  
H   -2.3200280   -0.0004071    0.8516411  
H    4.3686620    0.0004072   -1.7024293  
C    0.6887308   -0.7238759   -5.1615447  
C    0.3681061   -0.5064781   -6.4630873  
C   -0.7390722    0.4202661   -6.4747851  
C   -1.0393321    0.7271839   -5.0632486  
N   -0.1387082    0.0017019   -4.3179684  
C   -2.0224205    1.5671718   -4.6513476  
C   -2.8394473    2.2118217   -5.6659550  
O   -3.7493943    2.9848413   -5.3962566  
C   -2.5393026    1.9011591   -7.1670235  
O   -3.2207394    2.4377607   -8.0301367  
C   -1.4529086    0.9785916   -7.4871324  
H    0.8518655   -0.9453881   -7.3174580  
H   -2.2260444    1.7787428   -3.6108263  
H   -1.2514015    0.7689509   -8.5288471  
H    1.4597343   -1.3532679   -4.7476501  
C    2.5528530    2.1414826    2.8079335  
C    2.0663498    1.7338582    4.0032312  
C    0.9804344    0.8229586    3.6752840  
C    0.9495562    0.7966882    2.1971295  
N    1.8690446    1.5676019    1.6831036  
C    0.0000000    0.0000000    1.4700000  
C   -0.8785127   -0.7372425    2.1869543  
O   -1.8187535   -1.5261249    1.6395491  
C   -0.8723269   -0.7321790    3.6796354  
O   -1.7010379   -1.4274584    4.2670412  
C    0.1115397    0.0933559    4.4024240  
H    2.4028853    2.0163452    4.9860947  
H   -2.2861435   -1.9184361    2.3990168  
H    0.0832434    0.0693689    5.4835595  
H    3.3664920    2.8238276    2.6198634  
