44
34B 39B 19B 41 43 25 7 4 7 2 0 1 0 nosym
C    3.2573670   -0.0002919   -1.5109382  
C    2.5379467   -0.0001709   -0.3591962  
C    1.1435041    0.0000332   -0.7338497  
C    1.1092604   -0.0000081   -2.2088473  
N    2.4227560    0.0001911   -2.6182609  
C   -0.0265535   -0.0002522   -2.9515658  
C   -1.3003039   -0.0002638   -2.2514975  
O   -2.3786791   -0.0004131   -2.8306422  
C   -1.2877728    0.0000312   -0.6895603  
O   -2.3539955    0.0003306   -0.0892030  
C    0.0000000    0.0000000    0.0000000  
H    2.9384090   -0.0000367    0.6389240  
H   -0.0296294   -0.0004083   -4.0327228  
H    4.3270395   -0.0004763   -1.6439445  
C    3.9018564   -0.6890594   -4.5615359  
C    2.8699637   -0.0020523   -4.0185822  
C    2.2904537    0.7418988   -5.1263753  
C    3.1192042    0.3760116   -6.2950856  
N    4.0653349   -0.4625792   -5.9701369  
C    2.8658183    0.9104942   -7.6047461  
C    1.8312898    1.7710667   -7.7407621  
O    1.4810299    2.3457733   -8.9039778  
C    0.9763033    2.1595581   -6.5804888  
O    0.0517380    2.9479597   -6.7775246  
C    1.2565168    1.5977100   -5.2471728  
H    3.4876552    0.6259054   -8.4409505  
H    0.7129572    2.9031942   -8.6837536  
H    0.6139368    1.9041197   -4.4326579  
H    4.5856425   -1.3607923   -4.0673852  
C    0.0000000    0.0000000    1.4700000  
C    1.0662921    0.0000102    2.3034270  
C    0.4961870   -0.0000064    3.6418889  
C   -0.9663858    0.0000850    3.4240247  
N   -1.2632773    0.0000084    2.1528658  
C   -1.8985362    0.0000517    4.5177257  
C   -1.3925775   -0.0004564    5.7720543  
O   -2.1456383   -0.0005410    6.8851312  
C    0.0786232   -0.0009323    6.0245000  
O    0.4683759   -0.0012588    7.1921102  
C    1.0143166   -0.0008442    4.8859032  
H    2.1107198   -0.0000632    2.0421868  
H   -2.9622183    0.0003270    4.3293377  
H   -1.5042274   -0.0009692    7.6184419  
H    2.0724152   -0.0013148    5.1109744  
