44
29A 30A 39B 15A 24B 43 40 42 25 27 2 3 4 3 4 3 0 2 0 nosym
C    3.2798086    0.0005858   -1.4499646  
C    2.5571145    0.0005567   -2.5996553  
C    1.1637436    0.0001549   -2.2210360  
C    1.1336963   -0.0000199   -0.7459471  
N    2.4483514   -0.0001427   -0.3402720  
C    0.0000000    0.0000000    0.0000000  
C   -1.2757367   -0.0000186   -0.6964417  
O   -2.3524597   -0.0000640   -0.1142315  
C   -1.2676494   -0.0000872   -2.2584082  
O   -2.3355761   -0.0004100   -2.8557297  
C    0.0181560    0.0001762   -2.9516297  
H    0.0150792    0.0003321   -4.0331631  
H    4.3498549    0.0008613   -1.3200019  
H    2.7563626    0.0012824    0.6148062  
C    4.2042273   -0.7245771   -4.3883877  
C    4.4532752   -0.5080832   -5.7056503  
C    3.4504652    0.4176287   -6.1771004  
C    2.5906261    0.7249259   -5.0182060  
N    3.1006058    0.0006265   -3.9654949  
C    1.5247264    1.5641940   -5.0527252  
C    1.2027501    2.2076134   -6.3156102  
O    0.2625104    2.9799147   -6.4490277  
C    2.0996894    1.8965295   -7.5559857  
O    1.8381634    2.4320968   -8.6246450  
C    3.2214659    0.9748203   -7.3949816  
H    5.2485912   -0.9469428   -6.2814012  
H    0.9070138    1.7760612   -4.1910680  
H    3.8377473    0.7648809   -8.2586046  
H    4.7339429   -1.3530611   -3.6910368  
C    2.5528530    2.1414826    2.8079335  
C    2.0663498    1.7338582    4.0032312  
C    0.9804344    0.8229586    3.6752840  
C    0.9495562    0.7966882    2.1971295  
N    1.8690446    1.5676019    1.6831036  
C    0.0000000    0.0000000    1.4700000  
C   -0.8785127   -0.7372425    2.1869543  
O   -1.8187535   -1.5261249    1.6395491  
C   -0.8723269   -0.7321790    3.6796354  
O   -1.7010379   -1.4274584    4.2670412  
C    0.1115397    0.0933559    4.4024240  
H    2.4028853    2.0163452    4.9860947  
H   -2.2861435   -1.9184361    2.3990168  
H    0.0832434    0.0693689    5.4835595  
H    3.3664920    2.8238276    2.6198634  
