48
38B 5A 17B 26B 44 13 27 31 7 7 3 4 1 1 2 0 nosym
C    3.3041269    0.0001177   -1.5420434  
C    2.5845370   -0.0004780   -0.3695856  
C    1.2040006   -0.0000007   -0.7283591  
C    1.1422372    0.0006038   -2.1454374  
N    2.4348634    0.0026110   -2.6077469  
C   -0.0655187    0.0008799   -2.8497915  
C   -1.2321772    0.0002326   -2.1101397  
O   -2.4392820    0.0001149   -2.7472517  
C   -1.1911209   -0.0000007   -0.6955263  
O   -2.4371523   -0.0002319   -0.1032858  
C    0.0000000    0.0000000    0.0000000  
H    3.0031535   -0.0000661    0.6222578  
H    2.7054623   -0.0071098   -3.5745264  
H   -0.1193555    0.0014846   -3.9297470  
H   -3.1132995   -0.0000646   -2.0551782  
H   -2.3200286   -0.0004070    0.8516413  
C    5.7082752    0.0170070   -0.7673042  
C    6.9602955    0.0287161   -1.3371954  
C    6.7741492    0.0207405   -2.7513686  
C    5.3755281    0.0043194   -2.9869823  
N    4.7577216    0.0005129   -1.7610467  
C    4.8251842   -0.0068313   -4.2722007  
C    5.7027238   -0.0009975   -5.3390032  
O    5.2190231   -0.0110099   -6.6153058  
C    7.1014517    0.0149720   -5.1242418  
O    7.8424797    0.0185577   -6.2879465  
C    7.6450847    0.0257058   -3.8566162  
H    7.8930377    0.0403355   -0.7997484  
H    3.7601286   -0.0195071   -4.4584768  
H    5.9887338   -0.0049085   -7.1990636  
H    8.7756809    0.0295844   -6.0542421  
H    8.7205204    0.0376810   -3.7233005  
H    5.4181288    0.0176705    0.2694087  
C    0.8175213    0.6860729    2.3021913  
C    0.0000000    0.0000000    1.4700000  
C   -0.8887526   -0.7456559    2.3478473  
C   -0.4549825   -0.3816753    3.7138435  
N    0.5448156    0.4573574    3.6934124  
C   -1.0945674   -0.9182058    4.8835240  
C   -2.1210866   -1.7789155    4.6970523  
O   -2.8083856   -2.3554314    5.6976972  
C   -2.5824069   -2.1655116    3.3310774  
O   -3.5227682   -2.9541547    3.2362962  
C   -1.9100805   -1.6015804    2.1470656  
H   -0.7567140   -0.6349833    5.8697035  
H   -3.4728268   -2.9124471    5.2533954  
H   -2.2742832   -1.9066565    1.1752040  
H    1.6189533    1.3585343    2.0405121  
