44
34B 39B 5B 19B 41 43 12 25 7 4 7 7 2 1 1 0 nosym
C    3.2573672   -0.0002920   -1.5109379  
C    2.5379469   -0.0001709   -0.3591960  
C    1.1435044    0.0000331   -0.7338498  
C    1.1092608   -0.0000083   -2.2088475  
N    2.4227563    0.0001909   -2.6182608  
C   -0.0265531   -0.0002524   -2.9515661  
C   -1.3003038   -0.0002640   -2.2514979  
O   -2.3786783   -0.0004133   -2.8306426  
C   -1.2877724    0.0000311   -0.6895607  
O   -2.3539956    0.0003306   -0.0892035  
C    0.0000000    0.0000000    0.0000000  
H    2.9384089   -0.0000367    0.6389238  
H   -0.0296289   -0.0004086   -4.0327230  
H    2.7280494   -0.0013407   -3.5742114  
C    5.6736570   -0.0006412   -0.7359113  
C    4.7161333   -0.0005435   -1.6923255  
C    5.4441210   -0.0008917   -2.9519022  
C    6.8695494   -0.0010680   -2.5585344  
N    7.0103282   -0.0010031   -1.2607783  
C    7.9272791   -0.0014688   -3.5313104  
C    7.5769343   -0.0020725   -4.8376764  
O    8.4592387   -0.0024904   -5.8513723  
C    6.1471287   -0.0022845   -5.2664161  
O    5.9016333   -0.0027167   -6.4726301  
C    5.0804454   -0.0018210   -4.2495039  
H    8.9603213   -0.0013833   -3.2155044  
H    7.9113466   -0.0029031   -6.6569567  
H    4.0573873   -0.0021088   -4.6010467  
H    5.5430687   -0.0004690    0.3345654  
C    0.0000000    0.0000000    1.4700000  
C    1.0662921    0.0000102    2.3034270  
C    0.4961870   -0.0000064    3.6418889  
C   -0.9663858    0.0000850    3.4240247  
N   -1.2632773    0.0000084    2.1528658  
C   -1.8985362    0.0000517    4.5177257  
C   -1.3925775   -0.0004564    5.7720543  
O   -2.1456383   -0.0005410    6.8851312  
C    0.0786232   -0.0009323    6.0245000  
O    0.4683759   -0.0012588    7.1921102  
C    1.0143166   -0.0008442    4.8859032  
H    2.1107198   -0.0000632    2.0421868  
H   -2.9622183    0.0003270    4.3293377  
H   -1.5042274   -0.0009692    7.6184419  
H    2.0724152   -0.0013148    5.1109744  
