44
29A 30A 39B 14A 18A 19B 43 40 42 27 28 26 2 3 4 2 1 7 3 0 3 0 nosym
C    3.2798086    0.0005858   -1.4499646  
C    2.5571145    0.0005567   -2.5996553  
C    1.1637436    0.0001549   -2.2210360  
C    1.1336963   -0.0000199   -0.7459471  
N    2.4483514   -0.0001427   -0.3402720  
C    0.0000000    0.0000000    0.0000000  
C   -1.2757367   -0.0000186   -0.6964417  
O   -2.3524597   -0.0000640   -0.1142315  
C   -1.2676494   -0.0000872   -2.2584082  
O   -2.3355761   -0.0004100   -2.8557297  
C    0.0181560    0.0001762   -2.9516297  
H    0.0150792    0.0003321   -4.0331631  
H    4.3498549    0.0008613   -1.3200019  
H    2.7563626    0.0012824    0.6148062  
C    5.9816657   -2.0880605   -4.4453418  
C    5.0429439   -1.6267497   -3.5792766  
C    4.1873009   -0.7324969   -4.3229314  
C    4.7081984   -0.7105026   -5.7031388  
N    5.7962504   -1.5525077   -5.7108633  
C    4.1727805    0.0175984   -6.7155129  
C    3.0057183    0.8342500   -6.4264094  
O    2.4508359    1.5255875   -7.2704821  
C    2.4373468    0.8263678   -4.9715221  
O    1.4553087    1.5102023   -4.7161161  
C    3.1006058    0.0006265   -3.9654949  
H    4.9595396   -1.8834596   -2.5382401  
H    4.5702215    0.0195020   -7.7209712  
H    6.7934414   -2.7740405   -4.2655065  
H    6.3664578   -1.7493833   -6.5128302  
C    2.5528530    2.1414826    2.8079335  
C    2.0663498    1.7338582    4.0032312  
C    0.9804344    0.8229586    3.6752840  
C    0.9495562    0.7966882    2.1971295  
N    1.8690446    1.5676019    1.6831036  
C    0.0000000    0.0000000    1.4700000  
C   -0.8785127   -0.7372425    2.1869543  
O   -1.8187535   -1.5261249    1.6395491  
C   -0.8723269   -0.7321790    3.6796354  
O   -1.7010379   -1.4274584    4.2670412  
C    0.1115397    0.0933559    4.4024240  
H    2.4028853    2.0163452    4.9860947  
H   -2.2861435   -1.9184361    2.3990168  
H    0.0832434    0.0693689    5.4835595  
H    3.3664920    2.8238276    2.6198634  
