48
33A 38B 16A 17A 26B 47 45 32 27 31 2 7 2 3 4 2 0 3 0 nosym
C    3.3003551    0.0005277   -1.4738980  
C    2.5232820    0.0003498   -2.6090740  
C    1.1623207   -0.0001318   -2.1820099  
C    1.1711887    0.0000584   -0.7636138  
N    2.4852302   -0.0014919   -0.3662352  
C    0.0000000    0.0000000    0.0000000  
C   -1.2020382    0.0000521   -0.6806482  
O   -2.3759248    0.0003494    0.0157741  
C   -1.2314651   -0.0005111   -2.0955511  
O   -2.5054381   -0.0008036   -2.6250184  
C   -0.0764509   -0.0007271   -2.8495194  
H    2.8036266    0.0088182    0.5858670  
H   -3.0835635    0.0000348   -0.6418822  
H   -2.4360036   -0.0011526   -3.5845927  
H   -0.1304085   -0.0013419   -3.9319086  
H    4.3715552    0.0004895   -1.3667123  
C    5.9080455   -2.1212789   -4.5066905  
C    5.7372502   -1.6233277   -5.7776512  
C    4.6108303   -0.7493042   -5.7345063  
C    4.1315416   -0.7536527   -4.3995197  
N    4.9405892   -1.5984031   -3.6808710  
C    3.0267445   -0.0008950   -3.9901692  
C    2.3944499    0.7705367   -4.9458228  
O    1.3109376    1.5252432   -4.6002324  
C    2.8575152    0.7878056   -6.2830179  
O    2.1214428    1.6052993   -7.1156313  
C    3.9471980    0.0452332   -6.6876204  
H    6.3485809   -1.8616771   -6.6311484  
H    4.8499644   -1.7941735   -2.7003392  
H    1.0265043    1.9789022   -5.4043194  
H    2.4998696    1.5596274   -7.9989841  
H    4.2786876    0.0784980   -7.7188758  
H    6.6425538   -2.8091595   -4.1242292  
C    2.3971438    2.0127888    3.1728260  
C    1.9431056    1.6308205    1.9564670  
C    0.8496017    0.7127664    2.2356185  
C    0.7794028    0.6545384    3.7115134  
N    1.6840587    1.4146091    4.2663826  
C   -0.1885723   -0.1578550    4.3957118  
C   -1.0476298   -0.8789867    3.6398520  
O   -2.0015663   -1.6796266    4.1448486  
C   -1.0022026   -0.8410666    2.1483229  
O   -1.8147390   -1.5232959    1.5241687  
C    0.0000000    0.0000000    1.4700000  
H    2.3054237    1.9346118    0.9892483  
H   -0.2170646   -0.1815267    5.4753125  
H   -2.4487139   -2.0549881    3.3649027  
H    3.2048689    2.6911772    3.3971983  
