44
34B 0A 14A 18B 19A 40 12 27 28 26 7 2 2 1 7 1 1 3 0 nosym
C    3.2798084    0.0005856   -1.4499649  
C    2.5571145    0.0005564   -2.5996554  
C    1.1637435    0.0001547   -2.2210363  
C    1.1336965   -0.0000200   -0.7459473  
N    2.4483513   -0.0001428   -0.3402723  
C    0.0000000    0.0000000    0.0000000  
C   -1.2757369   -0.0000187   -0.6964416  
O   -2.3524596   -0.0000640   -0.1142313  
C   -1.2676495   -0.0000874   -2.2584083  
O   -2.3355762   -0.0004102   -2.8557296  
C    0.0181561    0.0001758   -2.9516298  
H    2.9547353    0.0006073   -3.5989108  
H    4.3498552    0.0008611   -1.3200024  
H    2.7563627    0.0012824    0.6148060  
C    2.5092672   -2.0880366   -5.9399680  
C    1.9605218   -1.6268628   -4.7865937  
C    0.8894591   -0.7326238   -5.1580730  
C    0.8589569   -0.7104883   -6.6329866  
N    1.8659267   -1.5524066   -7.0453882  
C   -0.0149626    0.0176437   -7.3731170  
C   -0.9904840    0.8341821   -6.6701532  
O   -1.8197972    1.5255369   -7.2468410  
C   -0.9762344    0.8261494   -5.1082512  
O   -1.7925789    1.5098877   -4.5054707  
C    0.0139739    0.0003876   -4.4216236  
H    2.2707714   -1.8836548   -3.7893895  
H   -0.0204992    0.0196517   -8.4542626  
H    3.3296618   -2.7739654   -6.0754080  
H    2.0965142   -1.7491789   -8.0020267  
C    0.8175213    0.6860729    2.3021913  
C    0.0000000    0.0000000    1.4700000  
C   -0.8887526   -0.7456559    2.3478473  
C   -0.4549825   -0.3816753    3.7138435  
N    0.5448156    0.4573574    3.6934124  
C   -1.0945674   -0.9182058    4.8835240  
C   -2.1210866   -1.7789155    4.6970523  
O   -2.8083856   -2.3554314    5.6976972  
C   -2.5824069   -2.1655116    3.3310774  
O   -3.5227682   -2.9541547    3.2362962  
C   -1.9100805   -1.6015804    2.1470656  
H   -0.7567140   -0.6349833    5.8697035  
H   -3.4728268   -2.9124471    5.2533954  
H   -2.2742832   -1.9066565    1.1752040  
H    1.6189533    1.3585343    2.0405121  
