44
34B 39B 5A 18B 19B 41 43 12 28 25 7 4 7 1 7 2 1 2 0 nosym
C    3.2573672   -0.0002920   -1.5109379  
C    2.5379469   -0.0001709   -0.3591960  
C    1.1435044    0.0000331   -0.7338498  
C    1.1092608   -0.0000083   -2.2088475  
N    2.4227563    0.0001909   -2.6182608  
C   -0.0265531   -0.0002524   -2.9515661  
C   -1.3003038   -0.0002640   -2.2514979  
O   -2.3786783   -0.0004133   -2.8306426  
C   -1.2877724    0.0000311   -0.6895607  
O   -2.3539956    0.0003306   -0.0892035  
C    0.0000000    0.0000000    0.0000000  
H    2.9384089   -0.0000367    0.6389238  
H   -0.0296289   -0.0004086   -4.0327230  
H    2.7280494   -0.0013407   -3.5742114  
C    5.6463487    0.0002323   -0.7029958  
C    4.7161333   -0.0005435   -1.6923255  
C    5.4339825   -0.0013633   -2.9451331  
C    6.8689505   -0.0010280   -2.6021222  
N    6.9298901    0.0003445   -1.2276499  
C    7.8767473   -0.0019861   -3.5109949  
C    7.5246271   -0.0032187   -4.9211527  
O    8.3596109   -0.0040804   -5.8161964  
C    6.0111300   -0.0033416   -5.3073283  
O    5.7025055   -0.0040680   -6.4913937  
C    5.0159849   -0.0025215   -4.2379652  
H    8.9229470   -0.0018484   -3.2382756  
H    3.9702014   -0.0028179   -4.5137559  
H    5.5021932    0.0009485    0.3652308  
H    7.7763885   -0.0006783   -0.6886821  
C    0.0000000    0.0000000    1.4700000  
C    1.0662921    0.0000102    2.3034270  
C    0.4961870   -0.0000064    3.6418889  
C   -0.9663858    0.0000850    3.4240247  
N   -1.2632773    0.0000084    2.1528658  
C   -1.8985362    0.0000517    4.5177257  
C   -1.3925775   -0.0004564    5.7720543  
O   -2.1456383   -0.0005410    6.8851312  
C    0.0786232   -0.0009323    6.0245000  
O    0.4683759   -0.0012588    7.1921102  
C    1.0143166   -0.0008442    4.8859032  
H    2.1107198   -0.0000632    2.0421868  
H   -2.9622183    0.0003270    4.3293377  
H   -1.5042274   -0.0009692    7.6184419  
H    2.0724152   -0.0013148    5.1109744  
