46
31A 32A 41B 16A 17A 26B 45 42 44 30 27 29 2 3 4 2 3 4 3 0 3 0 nosym
C    3.3041272    0.0001176   -1.5420431  
C    2.5845372   -0.0004781   -0.3695853  
C    1.2040006   -0.0000009   -0.7283588  
C    1.1422374    0.0006035   -2.1454372  
N    2.4348639    0.0026108   -2.6077465  
C   -0.0655182    0.0008795   -2.8497919  
C   -1.2321769    0.0002322   -2.1101399  
O   -2.4392814    0.0001143   -2.7472520  
C   -1.1911210   -0.0000008   -0.6955264  
O   -2.4371527   -0.0002321   -0.1032861  
C    0.0000000    0.0000000    0.0000000  
H    3.0031535   -0.0000660    0.6222584  
H   -0.1193549    0.0014841   -3.9297469  
H   -3.1132989   -0.0000650   -2.0551785  
H   -2.3200281   -0.0004071    0.8516412  
H    4.3686623    0.0004070   -1.7024293  
C    5.6587029   -2.1482568   -4.5997634  
C    5.5107200   -1.7555983   -5.8864254  
C    4.3729219   -0.8490959   -5.8734396  
C    3.9446799   -0.8087290   -4.4586732  
N    4.6947115   -1.5682538   -3.7072984  
C    2.8310664   -0.0116222   -4.0232753  
C    2.1753245    0.7125522   -4.9586407  
O    1.1191532    1.5001780   -4.6937094  
C    2.5836172    0.6930792   -6.3942859  
O    1.9410870    1.3768922   -7.1910142  
C    3.7292182   -0.1325929   -6.8159361  
H    6.1008489   -2.0452549   -6.7390229  
H    0.8721712    1.8818763   -5.5553698  
H    3.9932657   -0.1192712   -7.8649032  
H    6.3942975   -2.8231069   -4.1917795  
C    2.5528530    2.1414826    2.8079335  
C    2.0663498    1.7338582    4.0032312  
C    0.9804344    0.8229586    3.6752840  
C    0.9495562    0.7966882    2.1971295  
N    1.8690446    1.5676019    1.6831036  
C    0.0000000    0.0000000    1.4700000  
C   -0.8785127   -0.7372425    2.1869543  
O   -1.8187535   -1.5261249    1.6395491  
C   -0.8723269   -0.7321790    3.6796354  
O   -1.7010379   -1.4274584    4.2670412  
C    0.1115397    0.0933559    4.4024240  
H    2.4028853    2.0163452    4.9860947  
H   -2.2861435   -1.9184361    2.3990168  
H    0.0832434    0.0693689    5.4835595  
H    3.3664920    2.8238276    2.6198634  
