44
29A 30A 39B 5A 14B 19B 43 40 42 12 28 26 2 3 4 7 2 7 3 1 2 0 nosym
C    3.1301149   -0.0010311   -1.7028252  
C    2.5367766   -0.0002767   -0.4864665  
C    1.1089904    0.0001028   -0.7656183  
C    1.0177870   -0.0004148   -2.2415132  
N    2.1993578   -0.0011611   -2.7963820  
C   -0.2459213   -0.0002877   -2.9257118  
C   -1.3675317   -0.0000605   -2.1698525  
O   -2.6129311    0.0000867   -2.6748493  
C   -1.3083587    0.0000910   -0.6783232  
O   -2.3693264    0.0004206   -0.0541692  
C    0.0000000    0.0000000    0.0000000  
H    3.0096016   -0.0001007    0.4807523  
H   -0.2829632   -0.0004687   -4.0053124  
H   -3.1967439    0.0002094   -1.8949037  
C    6.8847540    0.0010456    0.6986583  
C    5.5715645    0.0014847    0.3713773  
C    5.5475445   -0.0003219   -1.0832428  
C    6.9721658   -0.0016282   -1.4795213  
N    7.7607283   -0.0009152   -0.4392525  
C    7.3784667   -0.0036305   -2.8579268  
C    6.4057879   -0.0046865   -3.7977293  
O    6.6406176   -0.0065624   -5.1209422  
C    4.9592101   -0.0037856   -3.4295265  
O    4.1279718   -0.0047103   -4.3374155  
C    4.5679461   -0.0016854   -2.0086701  
H    4.7238869    0.0027738    1.0350919  
H    8.4267355   -0.0043455   -3.1187774  
H    5.7562728   -0.0069357   -5.5297048  
H    7.3236788    0.0019890    1.6837054  
C    2.5528530    2.1414826    2.8079335  
C    2.0663498    1.7338582    4.0032312  
C    0.9804344    0.8229586    3.6752840  
C    0.9495562    0.7966882    2.1971295  
N    1.8690446    1.5676019    1.6831036  
C    0.0000000    0.0000000    1.4700000  
C   -0.8785127   -0.7372425    2.1869543  
O   -1.8187535   -1.5261249    1.6395491  
C   -0.8723269   -0.7321790    3.6796354  
O   -1.7010379   -1.4274584    4.2670412  
C    0.1115397    0.0933559    4.4024240  
H    2.4028853    2.0163452    4.9860947  
H   -2.2861435   -1.9184361    2.3990168  
H    0.0832434    0.0693689    5.4835595  
H    3.3664920    2.8238276    2.6198634  
