46
31A 36B 17A 26B 45 43 27 29 2 7 3 4 2 0 2 0 nosym
C    1.1243415    0.0099159   -0.7919008  
C    0.7474084    0.0234036   -2.1148547  
C   -0.6787372    0.0234950   -2.1414699  
C   -1.1201741    0.0099353   -0.7935545  
N    0.0000000    0.0000000    0.0000000  
C   -2.4730813    0.0065388   -0.4408235  
C   -3.3971951    0.0173288   -1.4675053  
O   -4.7313510    0.0149472   -1.1793456  
C   -2.9763637    0.0305528   -2.8186317  
O   -4.0166458    0.0397846   -3.7247611  
C   -1.6418550    0.0336375   -3.1673478  
H   -2.8160168   -0.0039199    0.5845974  
H   -5.1938811    0.0234395   -2.0274371  
H   -3.6464651    0.0484770   -4.6127333  
H   -1.3497452    0.0436785   -4.2109230  
H    2.1062467    0.0051388   -0.3505413  
C    2.8409284   -0.6917696   -3.3574586  
C    3.4607370   -0.4642992   -4.5441218  
C    2.6382175    0.4694664   -5.2765010  
C    1.4801203    0.7695272   -4.4130396  
N    1.6628963    0.0337773   -3.2649305  
C    0.4706810    1.6131343   -4.7463023  
C    0.5286015    2.2691956   -6.0419739  
O   -0.3320039    3.0462559   -6.4341931  
C    1.7457870    1.9659450   -6.9727282  
O    1.8052546    2.5121686   -8.0660554  
C    2.7720244    1.0385413   -6.5030352  
H    4.3881845   -0.9009544   -4.8693723  
H   -0.3697325    1.8195395   -4.0982192  
H    3.6116394    0.8340871   -7.1533959  
H    3.1455301   -1.3285638   -2.5428420  
C    2.3971438    2.0127888    3.1728260  
C    1.9431056    1.6308205    1.9564670  
C    0.8496017    0.7127664    2.2356185  
C    0.7794028    0.6545384    3.7115134  
N    1.6840587    1.4146091    4.2663826  
C   -0.1885723   -0.1578550    4.3957118  
C   -1.0476298   -0.8789867    3.6398520  
O   -2.0015663   -1.6796266    4.1448486  
C   -1.0022026   -0.8410666    2.1483229  
O   -1.8147390   -1.5232959    1.5241687  
C    0.0000000    0.0000000    1.4700000  
H    2.3054237    1.9346118    0.9892483  
H   -0.2170646   -0.1815267    5.4753125  
H   -2.4487139   -2.0549881    3.3649027  
H    3.2048689    2.6911772    3.3971983  
