44
34B 39B 15A 24B 41 43 25 27 7 4 3 4 2 0 2 0 nosym
C    1.0965514    0.0001359   -0.8010305  
C    0.0000000    0.0000000    0.0000000  
C   -1.1546565    0.0001470   -0.8669508  
C   -0.6372019    0.0003521   -2.2486278  
N    0.7342868    0.0007339   -2.1395011  
C   -1.4147745    0.0001355   -3.3608712  
C   -2.8576054   -0.0001045   -3.1854454  
O   -3.6427786   -0.0002490   -4.1244897  
C   -3.4275844   -0.0000724   -1.7311659  
O   -4.6406828    0.0000334   -1.5710047  
C   -2.4891866   -0.0001090   -0.6116741  
H   -1.0150455    0.0001619   -4.3654242  
H   -2.8919121   -0.0002919    0.3920869  
H    2.1388271    0.0000663   -0.5261648  
C    2.8497499   -0.7283600   -3.3359973  
C    3.4914337   -0.5134518   -4.5133381  
C    2.6832169    0.4132002   -5.2702642  
C    1.5096736    0.7227770   -4.4313672  
N    1.6707637   -0.0012341   -3.2725974  
C    0.5071662    1.5634841   -4.7917769  
C    0.5893837    2.2061573   -6.0928331  
O   -0.2632816    2.9796310   -6.5087665  
C    1.8232399    1.8926660   -6.9978894  
O    1.9032027    2.4275868   -8.0954897  
C    2.8399720    0.9695598   -6.4999104  
H    4.4243720   -0.9539521   -4.8169814  
H   -0.3448598    1.7770164   -4.1614078  
H    3.6912431    0.7579555   -7.1325913  
H    3.1388483   -1.3569180   -2.5094220  
C    0.0000000    0.0000000    1.4700000  
C    1.0662921    0.0000102    2.3034270  
C    0.4961870   -0.0000064    3.6418889  
C   -0.9663858    0.0000850    3.4240247  
N   -1.2632773    0.0000084    2.1528658  
C   -1.8985362    0.0000517    4.5177257  
C   -1.3925775   -0.0004564    5.7720543  
O   -2.1456383   -0.0005410    6.8851312  
C    0.0786232   -0.0009323    6.0245000  
O    0.4683759   -0.0012588    7.1921102  
C    1.0143166   -0.0008442    4.8859032  
H    2.1107198   -0.0000632    2.0421868  
H   -2.9622183    0.0003270    4.3293377  
H   -1.5042274   -0.0009692    7.6184419  
H    2.0724152   -0.0013148    5.1109744  
