46
31A 32A 41B 16A 17A 26B 45 42 44 29 27 28 2 3 4 2 3 4 3 0 3 0 nosym
C    3.3041272    0.0001176   -1.5420431  
C    2.5845372   -0.0004781   -0.3695853  
C    1.2040006   -0.0000009   -0.7283588  
C    1.1422374    0.0006035   -2.1454372  
N    2.4348639    0.0026108   -2.6077465  
C   -0.0655182    0.0008795   -2.8497919  
C   -1.2321769    0.0002322   -2.1101399  
O   -2.4392814    0.0001143   -2.7472520  
C   -1.1911210   -0.0000008   -0.6955264  
O   -2.4371527   -0.0002321   -0.1032861  
C    0.0000000    0.0000000    0.0000000  
H    3.0031535   -0.0000660    0.6222584  
H   -0.1193549    0.0014841   -3.9297469  
H   -3.1132989   -0.0000650   -2.0551785  
H   -2.3200281   -0.0004071    0.8516412  
H    4.3686623    0.0004070   -1.7024293  
C    5.6502441   -2.1159095   -4.7187983  
C    5.4250929   -1.6663856   -5.9802697  
C    4.2912972   -0.7748309   -5.9133914  
C    3.8713717   -0.7415300   -4.4994096  
N    4.7351844   -1.5757176   -3.8279569  
C    2.8310664   -0.0116222   -4.0232753  
C    2.0743464    0.7948331   -4.9664296  
O    1.1203089    1.4867875   -4.6358047  
C    2.5012808    0.7745014   -6.4688004  
O    1.8714980    1.4492146   -7.2721662  
C    3.6401550   -0.0516388   -6.8616237  
H    5.9888048   -1.9294831   -6.8575508  
H    3.9294739   -0.0600291   -7.9037121  
H    6.4075322   -2.7965354   -4.3650279  
H    4.7066626   -1.7617128   -2.8422391  
C    2.5528530    2.1414826    2.8079335  
C    2.0663498    1.7338582    4.0032312  
C    0.9804344    0.8229586    3.6752840  
C    0.9495562    0.7966882    2.1971295  
N    1.8690446    1.5676019    1.6831036  
C    0.0000000    0.0000000    1.4700000  
C   -0.8785127   -0.7372425    2.1869543  
O   -1.8187535   -1.5261249    1.6395491  
C   -0.8723269   -0.7321790    3.6796354  
O   -1.7010379   -1.4274584    4.2670412  
C    0.1115397    0.0933559    4.4024240  
H    2.4028853    2.0163452    4.9860947  
H   -2.2861435   -1.9184361    2.3990168  
H    0.0832434    0.0693689    5.4835595  
H    3.3664920    2.8238276    2.6198634  
