46
36B 21B 26B 42 28 30 7 7 4 1 0 2 0 nosym
C    3.3041272    0.0001176   -1.5420431  
C    2.5845372   -0.0004781   -0.3695853  
C    1.2040006   -0.0000009   -0.7283588  
C    1.1422374    0.0006035   -2.1454372  
N    2.4348639    0.0026108   -2.6077465  
C   -0.0655182    0.0008795   -2.8497919  
C   -1.2321769    0.0002322   -2.1101399  
O   -2.4392814    0.0001143   -2.7472520  
C   -1.1911210   -0.0000008   -0.6955264  
O   -2.4371527   -0.0002321   -0.1032861  
C    0.0000000    0.0000000    0.0000000  
H    3.0031535   -0.0000660    0.6222584  
H   -0.1193549    0.0014841   -3.9297469  
H   -3.1132989   -0.0000650   -2.0551785  
H   -2.3200281   -0.0004071    0.8516412  
H    4.3686623    0.0004070   -1.7024293  
C    2.8310664   -0.0116222   -4.0232753  
C    4.0825191   -0.0123294   -4.5384881  
C    3.8942660   -0.0292140   -5.9809775  
C    2.4271112   -0.0373084   -6.1653008  
N    1.7985993   -0.0269768   -5.0212487  
C    1.8242446   -0.0543096   -7.4696584  
C    2.6495464   -0.0624481   -8.5411735  
O    2.2243627   -0.0783474   -9.8159312  
C    4.1343290   -0.0542444   -8.3878302  
O    4.8243543   -0.0625283   -9.4071522  
C    4.7285071   -0.0368388   -7.0392852  
H    5.0178761   -0.0025054   -4.0054902  
H    0.7491608   -0.0601153   -7.5748756  
H    3.0396757   -0.0805846  -10.3492344  
H    5.8081004   -0.0312316   -6.9708985  
C    0.8175213    0.6860729    2.3021913  
C    0.0000000    0.0000000    1.4700000  
C   -0.8887526   -0.7456559    2.3478473  
C   -0.4549825   -0.3816753    3.7138435  
N    0.5448156    0.4573574    3.6934124  
C   -1.0945674   -0.9182058    4.8835240  
C   -2.1210866   -1.7789155    4.6970523  
O   -2.8083856   -2.3554314    5.6976972  
C   -2.5824069   -2.1655116    3.3310774  
O   -3.5227682   -2.9541547    3.2362962  
C   -1.9100805   -1.6015804    2.1470656  
H   -0.7567140   -0.6349833    5.8697035  
H   -3.4728268   -2.9124471    5.2533954  
H   -2.2742832   -1.9066565    1.1752040  
H    1.6189533    1.3585343    2.0405121  
