48
33A 34A 43B 20A 21B 47 44 46 27 28 2 3 4 1 7 3 0 2 0 nosym
C    1.1243415    0.0099159   -0.7919008  
C    0.7474084    0.0234036   -2.1148547  
C   -0.6787372    0.0234950   -2.1414699  
C   -1.1201741    0.0099353   -0.7935545  
N    0.0000000    0.0000000    0.0000000  
C   -2.4730813    0.0065388   -0.4408235  
C   -3.3971951    0.0173288   -1.4675053  
O   -4.7313510    0.0149472   -1.1793456  
C   -2.9763637    0.0305528   -2.8186317  
O   -4.0166458    0.0397846   -3.7247611  
C   -1.6418550    0.0336375   -3.1673478  
H   -2.8160168   -0.0039199    0.5845974  
H   -5.1938811    0.0234395   -2.0274371  
H   -3.6464651    0.0484770   -4.6127333  
H   -1.3497452    0.0436785   -4.2109230  
H    2.1062467    0.0051388   -0.3505413  
C    2.8325099   -0.6837024   -3.3633899  
C    1.6628963    0.0337773   -3.2649305  
C    1.5246700    0.7730786   -4.4769235  
C    2.6494620    0.4636541   -5.2837855  
N    3.4243273   -0.4220915   -4.5769223  
C    2.8435991    1.0147375   -6.5539848  
C    1.8846451    1.8939701   -7.0182421  
O    2.0245188    2.4608233   -8.2519872  
C    0.7556089    2.2154756   -6.2278437  
O   -0.1087775    3.1064760   -6.8297557  
C    0.5635785    1.6724040   -4.9745586  
H    4.2835643   -0.8282058   -4.9005943  
H    3.6987770    0.7830874   -7.1738320  
H    1.2569322    3.0337395   -8.3778532  
H   -0.8432161    3.2699481   -6.2301887  
H   -0.3110362    1.9376811   -4.3921876  
H    3.2921329   -1.3602566   -2.6634038  
C    2.5528530    2.1414826    2.8079335  
C    2.0663498    1.7338582    4.0032312  
C    0.9804344    0.8229586    3.6752840  
C    0.9495562    0.7966882    2.1971295  
N    1.8690446    1.5676019    1.6831036  
C    0.0000000    0.0000000    1.4700000  
C   -0.8785127   -0.7372425    2.1869543  
O   -1.8187535   -1.5261249    1.6395491  
C   -0.8723269   -0.7321790    3.6796354  
O   -1.7010379   -1.4274584    4.2670412  
C    0.1115397    0.0933559    4.4024240  
H    2.4028853    2.0163452    4.9860947  
H   -2.2861435   -1.9184361    2.3990168  
H    0.0832434    0.0693689    5.4835595  
H    3.3664920    2.8238276    2.6198634  
