46
36B 41B 10A 16A 20B 21B 43 45 15 29 30 28 7 4 4 2 1 7 2 1 3 0 nosym
C    3.3003548    0.0005276   -1.4738982  
C    2.5232817    0.0003497   -2.6090743  
C    1.1623206   -0.0001319   -2.1820098  
C    1.1711888    0.0000583   -0.7636138  
N    2.4852302   -0.0014919   -0.3662355  
C    0.0000000    0.0000000    0.0000000  
C   -1.2020381    0.0000520   -0.6806479  
O   -2.3759246    0.0003495    0.0157742  
C   -1.2314650   -0.0005112   -2.0955510  
O   -2.5054382   -0.0008036   -2.6250182  
C   -0.0764510   -0.0007271   -2.8495193  
H    2.8919962   -0.0005619   -3.6205297  
H    2.8036267    0.0088181    0.5858667  
H   -3.0835639    0.0000348   -0.6418822  
H   -2.4360046   -0.0011526   -3.5845924  
H   -0.1304090   -0.0013420   -3.9319086  
C    6.5907964    0.0004121   -4.4182871  
C    5.3731495    0.0003985   -3.8171127  
C    5.6071054    0.0003104   -2.3922970  
C    7.0713645    0.0003028   -2.2113675  
N    7.6095210   -0.0000325   -3.4775740  
C    7.6973069    0.0006259   -1.0072492  
C    6.8738986    0.0007803    0.1904706  
O    7.3427984    0.0010090    1.3211491  
C    5.3209699    0.0005393    0.0224896  
O    4.6174383    0.0003599    1.0236411  
C    4.7630507    0.0004755   -1.3275395  
H    4.4198604    0.0002625   -4.3149619  
H    8.7727863    0.0007440   -0.8965447  
H    6.8296426    0.0004927   -5.4694015  
H    8.5911170    0.0014368   -3.6861719  
C    0.0000000    0.0000000    1.4700000  
C    1.0662921    0.0000102    2.3034270  
C    0.4961870   -0.0000064    3.6418889  
C   -0.9663858    0.0000850    3.4240247  
N   -1.2632773    0.0000084    2.1528658  
C   -1.8985362    0.0000517    4.5177257  
C   -1.3925775   -0.0004564    5.7720543  
O   -2.1456383   -0.0005410    6.8851312  
C    0.0786232   -0.0009323    6.0245000  
O    0.4683759   -0.0012588    7.1921102  
C    1.0143166   -0.0008442    4.8859032  
H    2.1107198   -0.0000632    2.0421868  
H   -2.9622183    0.0003270    4.3293377  
H   -1.5042274   -0.0009692    7.6184419  
H    2.0724152   -0.0013148    5.1109744  
