46
31A 32A 41B 10A 16B 21B 45 42 44 15 30 28 2 3 4 4 2 7 3 1 2 0 nosym
C    3.3003548    0.0005276   -1.4738982  
C    2.5232817    0.0003497   -2.6090743  
C    1.1623206   -0.0001319   -2.1820098  
C    1.1711888    0.0000583   -0.7636138  
N    2.4852302   -0.0014919   -0.3662355  
C    0.0000000    0.0000000    0.0000000  
C   -1.2020381    0.0000520   -0.6806479  
O   -2.3759246    0.0003495    0.0157742  
C   -1.2314650   -0.0005112   -2.0955510  
O   -2.5054382   -0.0008036   -2.6250182  
C   -0.0764510   -0.0007271   -2.8495193  
H    2.8919962   -0.0005619   -3.6205297  
H    2.8036267    0.0088181    0.5858667  
H   -3.0835639    0.0000348   -0.6418822  
H   -2.4360046   -0.0011526   -3.5845924  
H   -0.1304090   -0.0013420   -3.9319086  
C    6.7690615    0.0009404   -4.2725612  
C    5.4996713    0.0003249   -3.8032769  
C    5.6352800    0.0001664   -2.3547916  
C    7.0947609    0.0006466   -2.1170955  
N    7.7645151    0.0011823   -3.2375503  
C    7.6497401    0.0006997   -0.7915448  
C    6.7859647    0.0006804    0.2492366  
O    7.1644552    0.0007167    1.5387271  
C    5.3077380    0.0005720    0.0418547  
O    4.5810513    0.0004361    1.0354074  
C    4.7630507    0.0004755   -1.3275395  
H    4.5843346    0.0001068   -4.3700524  
H    8.7202890    0.0008484   -0.6471976  
H    6.3302582    0.0007160    2.0419847  
H    7.0973402    0.0012420   -5.2997942  
C    2.5528530    2.1414826    2.8079335  
C    2.0663498    1.7338582    4.0032312  
C    0.9804344    0.8229586    3.6752840  
C    0.9495562    0.7966882    2.1971295  
N    1.8690446    1.5676019    1.6831036  
C    0.0000000    0.0000000    1.4700000  
C   -0.8785127   -0.7372425    2.1869543  
O   -1.8187535   -1.5261249    1.6395491  
C   -0.8723269   -0.7321790    3.6796354  
O   -1.7010379   -1.4274584    4.2670412  
C    0.1115397    0.0933559    4.4024240  
H    2.4028853    2.0163452    4.9860947  
H   -2.2861435   -1.9184361    2.3990168  
H    0.0832434    0.0693689    5.4835595  
H    3.3664920    2.8238276    2.6198634  
