46
36B 21B 26B 42 28 29 7 7 4 1 0 2 0 nosym
C    1.1188644    0.0008216   -0.8003803  
C    0.0000000    0.0000000    0.0000000  
C   -1.1323861    0.0008904   -0.8673527  
C   -0.6382659    0.0019681   -2.1969278  
N    0.7324021    0.0038477   -2.1202237  
C   -1.4770909    0.0027323   -3.3154808  
C   -2.8395470    0.0020956   -3.0876857  
O   -3.7039197    0.0024441   -4.1440352  
C   -3.3517867    0.0013945   -1.7684331  
O   -4.7300488    0.0012387   -1.7073126  
C   -2.5248543    0.0009134   -0.6644818  
H    1.3576318   -0.0056175   -2.9057039  
H   -4.5940027    0.0021847   -3.7685134  
H   -4.9934597    0.0007284   -0.7819917  
H   -2.9462579    0.0005617    0.3339654  
H    2.1619892    0.0009343   -0.5342064  
C   -0.9736289    0.0040466   -4.6965764  
C    0.3099707    0.0046189   -5.1397993  
C    0.2571085    0.0059523   -6.5827266  
C   -1.1727585    0.0061403   -6.9464168  
N   -1.8659223    0.0045495   -5.7579677  
C   -1.6422559    0.0076693   -8.2197091  
C   -0.6747199    0.0090079   -9.3043318  
O   -0.9976599    0.0103676  -10.4850140  
C    0.8447415    0.0085831   -8.9423346  
O    1.6686246    0.0093933   -9.8470312  
C    1.2284004    0.0071689   -7.5328463  
H    1.1930595    0.0039770   -4.5259853  
H   -2.6952644    0.0079091   -8.4648250  
H    2.2824695    0.0070885   -7.2906431  
H   -2.8659627    0.0058216   -5.6745058  
C    0.8175213    0.6860729    2.3021913  
C    0.0000000    0.0000000    1.4700000  
C   -0.8887526   -0.7456559    2.3478473  
C   -0.4549825   -0.3816753    3.7138435  
N    0.5448156    0.4573574    3.6934124  
C   -1.0945674   -0.9182058    4.8835240  
C   -2.1210866   -1.7789155    4.6970523  
O   -2.8083856   -2.3554314    5.6976972  
C   -2.5824069   -2.1655116    3.3310774  
O   -3.5227682   -2.9541547    3.2362962  
C   -1.9100805   -1.6015804    2.1470656  
H   -0.7567140   -0.6349833    5.8697035  
H   -3.4728268   -2.9124471    5.2533954  
H   -2.2742832   -1.9066565    1.1752040  
H    1.6189533    1.3585343    2.0405121  
