46
31A 32A 41B 16A 20A 21B 45 42 44 29 30 28 2 3 4 2 1 7 3 0 3 0 nosym
C    1.1188644    0.0008217   -0.8003807  
C    0.0000000    0.0000000    0.0000000  
C   -1.1323862    0.0008904   -0.8673526  
C   -0.6382660    0.0019682   -2.1969280  
N    0.7324018    0.0038477   -2.1202240  
C   -1.4770912    0.0027325   -3.3154810  
C   -2.8395475    0.0020958   -3.0876858  
O   -3.7039195    0.0024443   -4.1440347  
C   -3.3517868    0.0013946   -1.7684332  
O   -4.7300492    0.0012389   -1.7073123  
C   -2.5248543    0.0009136   -0.6644818  
H   -1.1067568    0.0036993   -4.3313811  
H   -4.5940030    0.0021851   -3.7685130  
H   -4.9934599    0.0007287   -0.7819913  
H   -2.9462578    0.0005617    0.3339655  
H    2.1619894    0.0009344   -0.5342067  
C    4.5412299   -2.0990458   -2.8732839  
C    3.3927945   -1.6299071   -2.3209434  
C    2.7903275   -0.7451835   -3.2900321  
C    3.6883337   -0.7373119   -4.4606359  
N    4.7307579   -1.5775627   -4.1440605  
C    3.4698859   -0.0211200   -5.5924727  
C    2.2703755    0.7967024   -5.6623073  
O    1.9845410    1.4779272   -6.6382847  
C    1.3053399    0.8036744   -4.4341122  
O    0.2924811    1.4886258   -4.4812228  
C    1.6478436   -0.0100108   -3.2702998  
H    3.0113365   -1.8754419   -1.3458453  
H    4.1412534   -0.0294742   -6.4398836  
H    5.2651713   -2.7816995   -2.4588175  
H    5.5083106   -1.7821921   -4.7445492  
C    2.5528530    2.1414826    2.8079335  
C    2.0663498    1.7338582    4.0032312  
C    0.9804344    0.8229586    3.6752840  
C    0.9495562    0.7966882    2.1971295  
N    1.8690446    1.5676019    1.6831036  
C    0.0000000    0.0000000    1.4700000  
C   -0.8785127   -0.7372425    2.1869543  
O   -1.8187535   -1.5261249    1.6395491  
C   -0.8723269   -0.7321790    3.6796354  
O   -1.7010379   -1.4274584    4.2670412  
C    0.1115397    0.0933559    4.4024240  
H    2.4028853    2.0163452    4.9860947  
H   -2.2861435   -1.9184361    2.3990168  
H    0.0832434    0.0693689    5.4835595  
H    3.3664920    2.8238276    2.6198634  
